
                            < M A T L A B (R) >
                  Copyright 1984-2021 The MathWorks, Inc.
                  R2021b (9.11.0.1769968) 64-bit (glnxa64)
                             September 17, 2021

 
To get started, type doc.
For product information, visit www.mathworks.com.
 

m1 =

    'AoA: 0.00 
     Iteration 1 
     Error: 1.000000 
     Tip displacement: 0.00 [mm] 
     Total lift: 0 [N]'

/opt/ud/ansys-2019r1/v193/fluent/fluent19.3.0/bin/fluent -r19.3.0 3ddp -alnamd64 -t20 -mpi=ibmmpi -g -i fluent_script.in
/opt/ud/ansys-2019r1/v193/fluent/fluent19.3.0/cortex/lnamd64/cortex.19.3.0 -f fluent -g -i fluent_script.in (fluent "3ddp -pshmem  -host -alnamd64 -r19.3.0 -t20 -mpi=ibmmpi -path/opt/ud/ansys-2019r1/v193/fluent -ssh")
/opt/ud/ansys-2019r1/v193/fluent/fluent19.3.0/bin/fluent -r19.3.0 3ddp -pshmem -host -alnamd64 -t20 -mpi=ibmmpi -path/opt/ud/ansys-2019r1/v193/fluent -ssh -cx n12-34.hpc:35623:43544
Starting /opt/ud/ansys-2019r1/v193/fluent/fluent19.3.0/lnamd64/3ddp_host/fluent.19.3.0 host -cx n12-34.hpc:35623:43544 "(list (rpsetvar (QUOTE parallel/function) "fluent 3ddp -flux -node -alnamd64 -r19.3.0 -t20 -pshmem -mpi=ibmmpi -ssh") (rpsetvar (QUOTE parallel/rhost) "") (rpsetvar (QUOTE parallel/ruser) "") (rpsetvar (QUOTE parallel/nprocs_string) "20") (rpsetvar (QUOTE parallel/auto-spawn?) #t) (rpsetvar (QUOTE parallel/trace-level) 0) (rpsetvar (QUOTE parallel/remote-shell) 1) (rpsetvar (QUOTE parallel/path) "/opt/ud/ansys-2019r1/v193/fluent") (rpsetvar (QUOTE parallel/hostsfile) "") )"

              Welcome to ANSYS Fluent 2019 R1

              Copyright 1987-2018 ANSYS, Inc. All Rights Reserved.
              Unauthorized use, distribution or duplication is prohibited.
              This product is subject to U.S. laws governing export and re-export.
              For full Legal Notice, see documentation.

Build Time: Dec 04 2018 13:42:27 EST  Build Id: 10141  
 

     --------------------------------------------------------------
     This is an academic version of ANSYS FLUENT. Usage of this product
     license is limited to the terms and conditions specified in your ANSYS
     license form, additional terms section.
     --------------------------------------------------------------
Host spawning Node 0 on machine "n12-34" (unix).
/opt/ud/ansys-2019r1/v193/fluent/fluent19.3.0/bin/fluent -r19.3.0 3ddp -flux -node -alnamd64 -t20 -pshmem -mpi=ibmmpi -ssh -mport 192.168.1.34:192.168.1.34:41505:0
Starting /opt/ud/ansys-2019r1/v193/fluent/fluent19.3.0/multiport/mpi/lnamd64/ibmmpi/bin/mpirun -e MPI_IBV_NO_FORK_SAFE=1 -e MPI_USE_MALLOPT_MMAP_MAX=0 -np 20 /opt/ud/ansys-2019r1/v193/fluent/fluent19.3.0/lnamd64/3ddp_node/fluent_mpi.19.3.0 node -mpiw ibmmpi -pic shmem -mport 192.168.1.34:192.168.1.34:41505:0

-------------------------------------------------------------------------------
ID     Hostname  Core   O.S.      PID          Vendor                      
-------------------------------------------------------------------------------
n0-19  n12-34    20/40  Linux-64  18345-18364  Intel(R) Xeon(R) E5-2660 v3 
host   n12-34           Linux-64  18158        Intel(R) Xeon(R) E5-2660 v3 

MPI Option Selected: ibmmpi
Selected system interconnect: shared-memory
-------------------------------------------------------------------------------

Cleanup script file is /home/sharanp/FSI_Static_CRM_Test/Fluent/cleanup-fluent-n12-34-18158.sh

 +------------------------------------------------------------------+
 |                    ANSYS Product Improvement                     |
 |                                                                  |
 |   ANSYS Product Improvement Program helps improve ANSYS          |
 |   products. Participating in this program is like filling out a  |
 |   survey. Without interrupting your work, the software reports   |
 |   anonymous usage information such as errors, machine and        |
 |   solver statistics, features used, etc. to ANSYS. We never      |
 |   use the data to identify or contact you.                       |
 |   The data does NOT contain:                                     |
 |   - Any personally identifiable information including names,     |
 |     IP addresses, file names, part names, etc.                   |
 |   - Any information about your geometry or design specific       |
 |     inputs.                                                      |
 |   You can stop participation at any time. To change your         |
 |   selection go to Help >> ANSYS Product Improvement Program      |
 |   in the GUI.                                                    |
 |   For more information about the ANSYS Privacy Policy, please    |
 |   check: http://www.ansys.com/privacy                            |
 |                                                                  |
 +------------------------------------------------------------------+

Reading journal file fluent_script.in...

> file/read-case "CRM9.cas"
Multicore SMT processors detected. Processor affinity set!

Reading "CRM9.cas"...

Buffering for file scan...



 4686531 mixed cells, zone  2, binary.
Warning: reading 4 partition grid onto 20 compute node machine;
         will auto partition.
 4686531 cell partition ids, zone  2, 4 partitions, binary.
10831129 mixed interior faces, zone  1, binary.
    9316 mixed symmetry faces, zone  5, binary.
     192 triangular pressure-far-field faces, zone  6, binary.
     174 triangular pressure-far-field faces, zone  7, binary.
     194 triangular pressure-far-field faces, zone  8, binary.
     194 triangular pressure-far-field faces, zone  9, binary.
     366 triangular pressure-far-field faces, zone 10, binary.
  154030 triangular wall faces, zone 11, binary.
 1851778 nodes, binary.
1851778 node flags, binary.

Building...
     mesh
	auto partitioning mesh by Metis (fast),
	distributing mesh
		parts....................,
		faces....................,
		nodes....................,
		cells....................,
        bandwidth reduction using Reverse Cuthill-McKee: 235808/5005 = 47.1145
     materials,
     interface,
     domains,
	mixture
     zones,
	wing_t
	symmetry
	interior-sys_domain
	far_side
	inlet
	lower_side
	outlet
	upper_side
	sys_domain
     parallel,
     dynamic zones,
        wing_t
Warning: incorrect grid motion UDF wall_motion::libudf on zone 11 (assuming no motion)
        symmetry
        interior-sys_domain
Done.
 

> define/user-defined compiled-functions compile 

Compiled UDF library name: ["libudf"] "libudf" 

 	 Make sure that UDF source files are in the directory 
 	 that contains your case and data files. If you have 
 	 an existing libudf directory, please remove this 
 	 directory to ensure that latest files are used. 
 Continue? [yes] yes 
 Give C-Source file names:

First file name: [""] disp_CRM9_f.c 
Next  file name: [""] export_loads.c 
Next  file name: [""]  

 Give header file names:
First file name: [""]  
Copied /home/sharanp/FSI_Static_CRM_Test/Fluent/./disp_CRM9_f.c to libudf/src
Copied /home/sharanp/FSI_Static_CRM_Test/Fluent/./export_loads.c to libudf/src
make: *** No rule to make target `clean'.  Stop.


Working...
for d in lnamd64/[23]*; do \
  ( \
    cd $d; \
	rm -rf *.{c,h,cpp,hpp}; \
    for f in ../../src/*.{c,h,cpp,hpp} ../../src/makefile ../../src/user.udf; do \
      if [ -f $f -a ! -f `basename $f` ]; then \
        echo "# linking to" $f "in" $d; \
        ln -s $f .; \
      fi; \
    done; \
    echo ""; \
    echo "# building library in" $d; \
    if [ "" = "1" ]; then \
	echo "# using gcc64"; \
	make ARCHC=gcc64 -k>makelog 2>&1; \
    else \
	if [ "" = "1" ]; then \
		echo "# using gcc"; \
		make ARCHC=gcc -k>makelog 2>&1; \
	else \
		make -k>makelog 2>&1; \
	fi; \
    fi;\
    cat makelog; \
  ) \
done
# linking to ../../src/disp_CRM9_f.c in lnamd64/3ddp_host
# linking to ../../src/export_loads.c in lnamd64/3ddp_host
# linking to ../../src/makefile in lnamd64/3ddp_host

# building library in lnamd64/3ddp_host
make[1]: Entering directory `/home/sharanp/FSI_Static_CRM_Test/Fluent/libudf/lnamd64/3ddp_host'
# Generating udf_names.c because of makefile disp_CRM9_f.c export_loads.c
make[2]: Entering directory `/home/sharanp/FSI_Static_CRM_Test/Fluent/libudf/lnamd64/3ddp_host'
make libudf.so "CFLAGS=-D_lnamd64 -D_GNU_SOURCE -fpic -shared -ansi -Wall -O -DPTR_RESTRICT=   " "LDFLAGS=-shared -lm"
make[3]: Entering directory `/home/sharanp/FSI_Static_CRM_Test/Fluent/libudf/lnamd64/3ddp_host'
# Compiling udf_names.o because of 
cc -D_lnamd64 -D_GNU_SOURCE -fpic -shared -ansi -Wall -O -DPTR_RESTRICT=    -I/opt/ud/ansys-2019r1/v193/fluent/fluent19.3.0/`expr "\`pwd\`" : '.*/\(.*\)/[23].*'`/`basename "\`pwd\`"` -I/opt/ud/ansys-2019r1/v193/fluent/fluent19.3.0/src/main -I/opt/ud/ansys-2019r1/v193/fluent/fluent19.3.0/src/addon-wrapper -I/opt/ud/ansys-2019r1/v193/fluent/fluent19.3.0/src/io -I/opt/ud/ansys-2019r1/v193/fluent/fluent19.3.0/src/species -I/opt/ud/ansys-2019r1/v193/fluent/fluent19.3.0/src/pbns -I/opt/ud/ansys-2019r1/v193/fluent/fluent19.3.0/src/numerics -I/opt/ud/ansys-2019r1/v193/fluent/fluent19.3.0/src/sphysics -I/opt/ud/ansys-2019r1/v193/fluent/fluent19.3.0/src/storage -I/opt/ud/ansys-2019r1/v193/fluent/fluent19.3.0/src/mphase -I/opt/ud/ansys-2019r1/v193/fluent/fluent19.3.0/src/bc -I/opt/ud/ansys-2019r1/v193/fluent/fluent19.3.0/src/models -I/opt/ud/ansys-2019r1/v193/fluent/fluent19.3.0/src/material -I/opt/ud/ansys-2019r1/v193/fluent/fluent19.3.0/src/amg -I/opt/ud/ansys-2019r1/v193/fluent/fluent19.3.0/src/util -I/opt/ud/ansys-2019r1/v193/fluent/fluent19.3.0/src/mesh -I/opt/ud/ansys-2019r1/v193/fluent/fluent19.3.0/src/udf -I/opt/ud/ansys-2019r1/v193/fluent/fluent19.3.0/src/ht -I/opt/ud/ansys-2019r1/v193/fluent/fluent19.3.0/src/dx -I/opt/ud/ansys-2019r1/v193/fluent/fluent19.3.0/src/turbulence -I/opt/ud/ansys-2019r1/v193/fluent/fluent19.3.0/src/acoustics -I/opt/ud/ansys-2019r1/v193/fluent/fluent19.3.0/src/parallel -I/opt/ud/ansys-2019r1/v193/fluent/fluent19.3.0/src/etc -I/opt/ud/ansys-2019r1/v193/fluent/fluent19.3.0/src/ue -I/opt/ud/ansys-2019r1/v193/fluent/fluent19.3.0/src/dpm -I/opt/ud/ansys-2019r1/v193/fluent/fluent19.3.0/src/dbns -I/opt/ud/ansys-2019r1/v193/fluent/fluent19.3.0/cortex/src -I/opt/ud/ansys-2019r1/v193/fluent/fluent19.3.0/client/src -I/opt/ud/ansys-2019r1/v193/fluent/fluent19.3.0/tgrid/src -I/opt/ud/ansys-2019r1/v193/fluent/fluent19.3.0/PRIME/tgrid/src -I/opt/ud/ansys-2019r1/v193/fluent/fluent19.3.0/multiport/src -I/opt/ud/ansys-2019r1/v193/fluent/fluent19.3.0/multiport/mpi_wrapper/include -I/opt/ud/ansys-2019r1/v193/fluent/fluent19.3.0/multiport/mpi_wrapper/src -I. -c udf_names.c
# Compiling disp_CRM9_f.o because of disp_CRM9_f.c
cc -D_lnamd64 -D_GNU_SOURCE -fpic -shared -ansi -Wall -O -DPTR_RESTRICT=     -I/opt/ud/ansys-2019r1/v193/fluent/fluent19.3.0/`expr "\`pwd\`" : '.*/\(.*\)/[23].*'`/`basename "\`pwd\`"` -I/opt/ud/ansys-2019r1/v193/fluent/fluent19.3.0/src/main -I/opt/ud/ansys-2019r1/v193/fluent/fluent19.3.0/src/addon-wrapper -I/opt/ud/ansys-2019r1/v193/fluent/fluent19.3.0/src/io -I/opt/ud/ansys-2019r1/v193/fluent/fluent19.3.0/src/species -I/opt/ud/ansys-2019r1/v193/fluent/fluent19.3.0/src/pbns -I/opt/ud/ansys-2019r1/v193/fluent/fluent19.3.0/src/numerics -I/opt/ud/ansys-2019r1/v193/fluent/fluent19.3.0/src/sphysics -I/opt/ud/ansys-2019r1/v193/fluent/fluent19.3.0/src/storage -I/opt/ud/ansys-2019r1/v193/fluent/fluent19.3.0/src/mphase -I/opt/ud/ansys-2019r1/v193/fluent/fluent19.3.0/src/bc -I/opt/ud/ansys-2019r1/v193/fluent/fluent19.3.0/src/models -I/opt/ud/ansys-2019r1/v193/fluent/fluent19.3.0/src/material -I/opt/ud/ansys-2019r1/v193/fluent/fluent19.3.0/src/amg -I/opt/ud/ansys-2019r1/v193/fluent/fluent19.3.0/src/util -I/opt/ud/ansys-2019r1/v193/fluent/fluent19.3.0/src/mesh -I/opt/ud/ansys-2019r1/v193/fluent/fluent19.3.0/src/udf -I/opt/ud/ansys-2019r1/v193/fluent/fluent19.3.0/src/ht -I/opt/ud/ansys-2019r1/v193/fluent/fluent19.3.0/src/dx -I/opt/ud/ansys-2019r1/v193/fluent/fluent19.3.0/src/turbulence -I/opt/ud/ansys-2019r1/v193/fluent/fluent19.3.0/src/acoustics -I/opt/ud/ansys-2019r1/v193/fluent/fluent19.3.0/src/parallel -I/opt/ud/ansys-2019r1/v193/fluent/fluent19.3.0/src/etc -I/opt/ud/ansys-2019r1/v193/fluent/fluent19.3.0/src/ue -I/opt/ud/ansys-2019r1/v193/fluent/fluent19.3.0/src/dpm -I/opt/ud/ansys-2019r1/v193/fluent/fluent19.3.0/src/dbns -I/opt/ud/ansys-2019r1/v193/fluent/fluent19.3.0/cortex/src -I/opt/ud/ansys-2019r1/v193/fluent/fluent19.3.0/client/src -I/opt/ud/ansys-2019r1/v193/fluent/fluent19.3.0/tgrid/src -I/opt/ud/ansys-2019r1/v193/fluent/fluent19.3.0/PRIME/tgrid/src -I/opt/ud/ansys-2019r1/v193/fluent/fluent19.3.0/multiport/src -I/opt/ud/ansys-2019r1/v193/fluent/fluent19.3.0/multiport/mpi_wrapper/include -I/opt/ud/ansys-2019r1/v193/fluent/fluent19.3.0/multiport/mpi_wrapper/src -I. -c disp_CRM9_f.c
disp_CRM9_f.c: In function RBF:
disp_CRM9_f.c:16:9: warning: unused variable f [-Wunused-variable]
  double f = 0;
         ^
disp_CRM9_f.c:15:9: warning: unused variable r [-Wunused-variable]
  double r = 2.5; /*Support radius [m]*/
         ^
# Compiling export_loads.o because of export_loads.c
cc -D_lnamd64 -D_GNU_SOURCE -fpic -shared -ansi -Wall -O -DPTR_RESTRICT=     -I/opt/ud/ansys-2019r1/v193/fluent/fluent19.3.0/`expr "\`pwd\`" : '.*/\(.*\)/[23].*'`/`basename "\`pwd\`"` -I/opt/ud/ansys-2019r1/v193/fluent/fluent19.3.0/src/main -I/opt/ud/ansys-2019r1/v193/fluent/fluent19.3.0/src/addon-wrapper -I/opt/ud/ansys-2019r1/v193/fluent/fluent19.3.0/src/io -I/opt/ud/ansys-2019r1/v193/fluent/fluent19.3.0/src/species -I/opt/ud/ansys-2019r1/v193/fluent/fluent19.3.0/src/pbns -I/opt/ud/ansys-2019r1/v193/fluent/fluent19.3.0/src/numerics -I/opt/ud/ansys-2019r1/v193/fluent/fluent19.3.0/src/sphysics -I/opt/ud/ansys-2019r1/v193/fluent/fluent19.3.0/src/storage -I/opt/ud/ansys-2019r1/v193/fluent/fluent19.3.0/src/mphase -I/opt/ud/ansys-2019r1/v193/fluent/fluent19.3.0/src/bc -I/opt/ud/ansys-2019r1/v193/fluent/fluent19.3.0/src/models -I/opt/ud/ansys-2019r1/v193/fluent/fluent19.3.0/src/material -I/opt/ud/ansys-2019r1/v193/fluent/fluent19.3.0/src/amg -I/opt/ud/ansys-2019r1/v193/fluent/fluent19.3.0/src/util -I/opt/ud/ansys-2019r1/v193/fluent/fluent19.3.0/src/mesh -I/opt/ud/ansys-2019r1/v193/fluent/fluent19.3.0/src/udf -I/opt/ud/ansys-2019r1/v193/fluent/fluent19.3.0/src/ht -I/opt/ud/ansys-2019r1/v193/fluent/fluent19.3.0/src/dx -I/opt/ud/ansys-2019r1/v193/fluent/fluent19.3.0/src/turbulence -I/opt/ud/ansys-2019r1/v193/fluent/fluent19.3.0/src/acoustics -I/opt/ud/ansys-2019r1/v193/fluent/fluent19.3.0/src/parallel -I/opt/ud/ansys-2019r1/v193/fluent/fluent19.3.0/src/etc -I/opt/ud/ansys-2019r1/v193/fluent/fluent19.3.0/src/ue -I/opt/ud/ansys-2019r1/v193/fluent/fluent19.3.0/src/dpm -I/opt/ud/ansys-2019r1/v193/fluent/fluent19.3.0/src/dbns -I/opt/ud/ansys-2019r1/v193/fluent/fluent19.3.0/cortex/src -I/opt/ud/ansys-2019r1/v193/fluent/fluent19.3.0/client/src -I/opt/ud/ansys-2019r1/v193/fluent/fluent19.3.0/tgrid/src -I/opt/ud/ansys-2019r1/v193/fluent/fluent19.3.0/PRIME/tgrid/src -I/opt/ud/ansys-2019r1/v193/fluent/fluent19.3.0/multiport/src -I/opt/ud/ansys-2019r1/v193/fluent/fluent19.3.0/multiport/mpi_wrapper/include -I/opt/ud/ansys-2019r1/v193/fluent/fluent19.3.0/multiport/mpi_wrapper/src -I. -c export_loads.c
# Linking libudf.so because of makefile user.udf udf_names.c udf_names.o disp_CRM9_f.o export_loads.o
cc -shared -lm udf_names.o disp_CRM9_f.o export_loads.o  -o libudf.so
make[3]: Leaving directory `/home/sharanp/FSI_Static_CRM_Test/Fluent/libudf/lnamd64/3ddp_host'
make[2]: Leaving directory `/home/sharanp/FSI_Static_CRM_Test/Fluent/libudf/lnamd64/3ddp_host'
make[1]: Leaving directory `/home/sharanp/FSI_Static_CRM_Test/Fluent/libudf/lnamd64/3ddp_host'
# linking to ../../src/disp_CRM9_f.c in lnamd64/3ddp_node
# linking to ../../src/export_loads.c in lnamd64/3ddp_node
# linking to ../../src/makefile in lnamd64/3ddp_node

# building library in lnamd64/3ddp_node
make[1]: Entering directory `/home/sharanp/FSI_Static_CRM_Test/Fluent/libudf/lnamd64/3ddp_node'
# Generating udf_names.c because of makefile disp_CRM9_f.c export_loads.c
make[2]: Entering directory `/home/sharanp/FSI_Static_CRM_Test/Fluent/libudf/lnamd64/3ddp_node'
make libudf.so "CFLAGS=-D_lnamd64 -D_GNU_SOURCE -fpic -shared -ansi -Wall -O -DPTR_RESTRICT=   " "LDFLAGS=-shared -lm"
make[3]: Entering directory `/home/sharanp/FSI_Static_CRM_Test/Fluent/libudf/lnamd64/3ddp_node'
# Compiling udf_names.o because of 
cc -D_lnamd64 -D_GNU_SOURCE -fpic -shared -ansi -Wall -O -DPTR_RESTRICT=    -I/opt/ud/ansys-2019r1/v193/fluent/fluent19.3.0/`expr "\`pwd\`" : '.*/\(.*\)/[23].*'`/`basename "\`pwd\`"` -I/opt/ud/ansys-2019r1/v193/fluent/fluent19.3.0/src/main -I/opt/ud/ansys-2019r1/v193/fluent/fluent19.3.0/src/addon-wrapper -I/opt/ud/ansys-2019r1/v193/fluent/fluent19.3.0/src/io -I/opt/ud/ansys-2019r1/v193/fluent/fluent19.3.0/src/species -I/opt/ud/ansys-2019r1/v193/fluent/fluent19.3.0/src/pbns -I/opt/ud/ansys-2019r1/v193/fluent/fluent19.3.0/src/numerics -I/opt/ud/ansys-2019r1/v193/fluent/fluent19.3.0/src/sphysics -I/opt/ud/ansys-2019r1/v193/fluent/fluent19.3.0/src/storage -I/opt/ud/ansys-2019r1/v193/fluent/fluent19.3.0/src/mphase -I/opt/ud/ansys-2019r1/v193/fluent/fluent19.3.0/src/bc -I/opt/ud/ansys-2019r1/v193/fluent/fluent19.3.0/src/models -I/opt/ud/ansys-2019r1/v193/fluent/fluent19.3.0/src/material -I/opt/ud/ansys-2019r1/v193/fluent/fluent19.3.0/src/amg -I/opt/ud/ansys-2019r1/v193/fluent/fluent19.3.0/src/util -I/opt/ud/ansys-2019r1/v193/fluent/fluent19.3.0/src/mesh -I/opt/ud/ansys-2019r1/v193/fluent/fluent19.3.0/src/udf -I/opt/ud/ansys-2019r1/v193/fluent/fluent19.3.0/src/ht -I/opt/ud/ansys-2019r1/v193/fluent/fluent19.3.0/src/dx -I/opt/ud/ansys-2019r1/v193/fluent/fluent19.3.0/src/turbulence -I/opt/ud/ansys-2019r1/v193/fluent/fluent19.3.0/src/acoustics -I/opt/ud/ansys-2019r1/v193/fluent/fluent19.3.0/src/parallel -I/opt/ud/ansys-2019r1/v193/fluent/fluent19.3.0/src/etc -I/opt/ud/ansys-2019r1/v193/fluent/fluent19.3.0/src/ue -I/opt/ud/ansys-2019r1/v193/fluent/fluent19.3.0/src/dpm -I/opt/ud/ansys-2019r1/v193/fluent/fluent19.3.0/src/dbns -I/opt/ud/ansys-2019r1/v193/fluent/fluent19.3.0/cortex/src -I/opt/ud/ansys-2019r1/v193/fluent/fluent19.3.0/client/src -I/opt/ud/ansys-2019r1/v193/fluent/fluent19.3.0/tgrid/src -I/opt/ud/ansys-2019r1/v193/fluent/fluent19.3.0/PRIME/tgrid/src -I/opt/ud/ansys-2019r1/v193/fluent/fluent19.3.0/multiport/src -I/opt/ud/ansys-2019r1/v193/fluent/fluent19.3.0/multiport/mpi_wrapper/include -I/opt/ud/ansys-2019r1/v193/fluent/fluent19.3.0/multiport/mpi_wrapper/src -I. -c udf_names.c
# Compiling disp_CRM9_f.o because of disp_CRM9_f.c
cc -D_lnamd64 -D_GNU_SOURCE -fpic -shared -ansi -Wall -O -DPTR_RESTRICT=     -I/opt/ud/ansys-2019r1/v193/fluent/fluent19.3.0/`expr "\`pwd\`" : '.*/\(.*\)/[23].*'`/`basename "\`pwd\`"` -I/opt/ud/ansys-2019r1/v193/fluent/fluent19.3.0/src/main -I/opt/ud/ansys-2019r1/v193/fluent/fluent19.3.0/src/addon-wrapper -I/opt/ud/ansys-2019r1/v193/fluent/fluent19.3.0/src/io -I/opt/ud/ansys-2019r1/v193/fluent/fluent19.3.0/src/species -I/opt/ud/ansys-2019r1/v193/fluent/fluent19.3.0/src/pbns -I/opt/ud/ansys-2019r1/v193/fluent/fluent19.3.0/src/numerics -I/opt/ud/ansys-2019r1/v193/fluent/fluent19.3.0/src/sphysics -I/opt/ud/ansys-2019r1/v193/fluent/fluent19.3.0/src/storage -I/opt/ud/ansys-2019r1/v193/fluent/fluent19.3.0/src/mphase -I/opt/ud/ansys-2019r1/v193/fluent/fluent19.3.0/src/bc -I/opt/ud/ansys-2019r1/v193/fluent/fluent19.3.0/src/models -I/opt/ud/ansys-2019r1/v193/fluent/fluent19.3.0/src/material -I/opt/ud/ansys-2019r1/v193/fluent/fluent19.3.0/src/amg -I/opt/ud/ansys-2019r1/v193/fluent/fluent19.3.0/src/util -I/opt/ud/ansys-2019r1/v193/fluent/fluent19.3.0/src/mesh -I/opt/ud/ansys-2019r1/v193/fluent/fluent19.3.0/src/udf -I/opt/ud/ansys-2019r1/v193/fluent/fluent19.3.0/src/ht -I/opt/ud/ansys-2019r1/v193/fluent/fluent19.3.0/src/dx -I/opt/ud/ansys-2019r1/v193/fluent/fluent19.3.0/src/turbulence -I/opt/ud/ansys-2019r1/v193/fluent/fluent19.3.0/src/acoustics -I/opt/ud/ansys-2019r1/v193/fluent/fluent19.3.0/src/parallel -I/opt/ud/ansys-2019r1/v193/fluent/fluent19.3.0/src/etc -I/opt/ud/ansys-2019r1/v193/fluent/fluent19.3.0/src/ue -I/opt/ud/ansys-2019r1/v193/fluent/fluent19.3.0/src/dpm -I/opt/ud/ansys-2019r1/v193/fluent/fluent19.3.0/src/dbns -I/opt/ud/ansys-2019r1/v193/fluent/fluent19.3.0/cortex/src -I/opt/ud/ansys-2019r1/v193/fluent/fluent19.3.0/client/src -I/opt/ud/ansys-2019r1/v193/fluent/fluent19.3.0/tgrid/src -I/opt/ud/ansys-2019r1/v193/fluent/fluent19.3.0/PRIME/tgrid/src -I/opt/ud/ansys-2019r1/v193/fluent/fluent19.3.0/multiport/src -I/opt/ud/ansys-2019r1/v193/fluent/fluent19.3.0/multiport/mpi_wrapper/include -I/opt/ud/ansys-2019r1/v193/fluent/fluent19.3.0/multiport/mpi_wrapper/src -I. -c disp_CRM9_f.c
disp_CRM9_f.c: In function RBF:
disp_CRM9_f.c:16:9: warning: unused variable f [-Wunused-variable]
  double f = 0;
         ^
disp_CRM9_f.c:15:9: warning: unused variable r [-Wunused-variable]
  double r = 2.5; /*Support radius [m]*/
         ^
# Compiling export_loads.o because of export_loads.c
cc -D_lnamd64 -D_GNU_SOURCE -fpic -shared -ansi -Wall -O -DPTR_RESTRICT=     -I/opt/ud/ansys-2019r1/v193/fluent/fluent19.3.0/`expr "\`pwd\`" : '.*/\(.*\)/[23].*'`/`basename "\`pwd\`"` -I/opt/ud/ansys-2019r1/v193/fluent/fluent19.3.0/src/main -I/opt/ud/ansys-2019r1/v193/fluent/fluent19.3.0/src/addon-wrapper -I/opt/ud/ansys-2019r1/v193/fluent/fluent19.3.0/src/io -I/opt/ud/ansys-2019r1/v193/fluent/fluent19.3.0/src/species -I/opt/ud/ansys-2019r1/v193/fluent/fluent19.3.0/src/pbns -I/opt/ud/ansys-2019r1/v193/fluent/fluent19.3.0/src/numerics -I/opt/ud/ansys-2019r1/v193/fluent/fluent19.3.0/src/sphysics -I/opt/ud/ansys-2019r1/v193/fluent/fluent19.3.0/src/storage -I/opt/ud/ansys-2019r1/v193/fluent/fluent19.3.0/src/mphase -I/opt/ud/ansys-2019r1/v193/fluent/fluent19.3.0/src/bc -I/opt/ud/ansys-2019r1/v193/fluent/fluent19.3.0/src/models -I/opt/ud/ansys-2019r1/v193/fluent/fluent19.3.0/src/material -I/opt/ud/ansys-2019r1/v193/fluent/fluent19.3.0/src/amg -I/opt/ud/ansys-2019r1/v193/fluent/fluent19.3.0/src/util -I/opt/ud/ansys-2019r1/v193/fluent/fluent19.3.0/src/mesh -I/opt/ud/ansys-2019r1/v193/fluent/fluent19.3.0/src/udf -I/opt/ud/ansys-2019r1/v193/fluent/fluent19.3.0/src/ht -I/opt/ud/ansys-2019r1/v193/fluent/fluent19.3.0/src/dx -I/opt/ud/ansys-2019r1/v193/fluent/fluent19.3.0/src/turbulence -I/opt/ud/ansys-2019r1/v193/fluent/fluent19.3.0/src/acoustics -I/opt/ud/ansys-2019r1/v193/fluent/fluent19.3.0/src/parallel -I/opt/ud/ansys-2019r1/v193/fluent/fluent19.3.0/src/etc -I/opt/ud/ansys-2019r1/v193/fluent/fluent19.3.0/src/ue -I/opt/ud/ansys-2019r1/v193/fluent/fluent19.3.0/src/dpm -I/opt/ud/ansys-2019r1/v193/fluent/fluent19.3.0/src/dbns -I/opt/ud/ansys-2019r1/v193/fluent/fluent19.3.0/cortex/src -I/opt/ud/ansys-2019r1/v193/fluent/fluent19.3.0/client/src -I/opt/ud/ansys-2019r1/v193/fluent/fluent19.3.0/tgrid/src -I/opt/ud/ansys-2019r1/v193/fluent/fluent19.3.0/PRIME/tgrid/src -I/opt/ud/ansys-2019r1/v193/fluent/fluent19.3.0/multiport/src -I/opt/ud/ansys-2019r1/v193/fluent/fluent19.3.0/multiport/mpi_wrapper/include -I/opt/ud/ansys-2019r1/v193/fluent/fluent19.3.0/multiport/mpi_wrapper/src -I. -c export_loads.c
# Linking libudf.so because of makefile user.udf udf_names.c udf_names.o disp_CRM9_f.o export_loads.o
cc -shared -lm udf_names.o disp_CRM9_f.o export_loads.o  -o libudf.so
make[3]: Leaving directory `/home/sharanp/FSI_Static_CRM_Test/Fluent/libudf/lnamd64/3ddp_node'
make[2]: Leaving directory `/home/sharanp/FSI_Static_CRM_Test/Fluent/libudf/lnamd64/3ddp_node'
make[1]: Leaving directory `/home/sharanp/FSI_Static_CRM_Test/Fluent/libudf/lnamd64/3ddp_node'

You can also see the 'log'-file in 
the working directory for this compilation history

Done.

> define/user-defined compiled-functions load 
UDF Library Name ["libudf"] "libudf"
n12-34: Opening library "/home/sharanp/FSI_Static_CRM_Test/Fluent/libudf"...Done.

n12-34: Opening library "/home/sharanp/FSI_Static_CRM_Test/Fluent/libudf"...
	wall_motion
	export_loads
Done.
 

> define/boundary-conditions/pressure-far-field (upper_side outlet lower_side inlet far_side)

zone id/name [upper_side] inlet no 22000 no 0.850000 no 215.000000 yes no 1.000000 no 0 no 0.000000 no no yes no 10

> define/boundary-conditions/copy-bc 
Copy from: [] inlet 
()
to:(1) [()] outlet 
to:(2) [()] lower_side 
to:(3) [()] upper_side 
to:(4) [()] far_side 
to:(5) [()]  
Copy inlet boundary conditions to far_side
Copy inlet boundary conditions to upper_side
Copy inlet boundary conditions to lower_side
Copy inlet boundary conditions to outlet

> q/q 

>  
adapt/                  file/                   server/
adjoint/                mesh/                   solve/
define/                 parallel/               surface/
display/                plot/                   views/
exit                    report/

> report/reference-values/compute/pressure-far-field (upper_side outlet lower_side inlet far_side)

zone id/name [upper_side] inlet 

> q/q/q 

> solve/report-definitions/edit 
available-list: (cd cl)
select-to-edit/delete ["cd"] cl 

/solve/report-definitions/edit/cl> force-vector 
x-component of vector [0] -0.000000 
y-component-of-vector [0] 0 
z-component of vector [1] 1.000000 

/solve/report-definitions/edit/cl> q 

> solve/report-definitions/edit/cd 

/solve/report-definitions/edit/cd> force-vector 
x-component of vector [1] 1.000000 
y-component-of-vector [0] 0 
z-component of vector [0] 0.000000 

/solve/report-definitions/edit/cd> q/q/q 

> solve/set/p-v-coupling 24 

> solve/set/gradient-scheme  Options:
 Green-Gauss Cell-Based 
 Green-Gauss Node-Based 
 Least-Squares Cell-Based Default 
no yes 
 Least-Squares Cell-Based will be used

> solve/set/discretization-scheme pressure 11 

> solve/set/discretization-scheme density 0 

> solve/set/discretization-scheme mom 0 

> solve/set/discretization-scheme nut 0 

> solve/set/discretization-scheme temperature 0 

> solve/initialize/compute-defaults/pressure-far-field (upper_side outlet lower_side inlet far_side)

zone id/name [upper_side] inlet 

> solve/initialize/initialize-flow 

> q/q 

> solve/iterate/600 plot-residuals: no graphics functions available.

  iter  continuity  x-velocity  y-velocity  z-velocity      energy         nut          cd          cl     time/iter
     1  1.0000e+00  2.1853e-08  4.8972e-10  2.4859e-09  6.3537e-07  3.5259e-03  7.4747e-02  1.3431e-01  1:46:53  599
     2  1.0000e+00  6.2426e-07  7.4701e-07  9.4833e-07  6.9501e-07  3.6112e-03  6.3996e-02  1.9325e-01  1:39:39  598
     3  1.0000e+00  1.1455e-06  1.7242e-06  1.9878e-06  6.2725e-07  3.6385e-03  5.6795e-02  2.5260e-01  1:32:22  597
     4  9.1142e-01  8.1674e-07  1.2470e-06  1.5248e-06  4.7353e-07  3.5720e-03  5.1867e-02  3.0492e-01  1:25:02  596
     5  7.8272e-01  6.0271e-07  9.6697e-07  1.2100e-06  3.2887e-07  3.3644e-03  4.7782e-02  3.5070e-01  1:18:01  595
     6  6.4343e-01  4.5771e-07  7.6291e-07  9.5425e-07  2.4765e-07  3.0393e-03  4.4609e-02  3.8614e-01  1:12:23  594
     7  5.1995e-01  3.5957e-07  6.0826e-07  7.5146e-07  1.9387e-07  2.6217e-03  4.2591e-02  4.0860e-01  1:06:23  593
     8  4.1558e-01  2.9793e-07  4.8767e-07  5.9223e-07  1.6656e-07  2.1656e-03  4.1070e-02  4.2261e-01  1:01:34  592
     9  3.3309e-01  2.5422e-07  3.9587e-07  4.7283e-07  1.4634e-07  1.7143e-03  3.9993e-02  4.3144e-01  0:57:22  591
    10  2.6722e-01  2.2166e-07  3.2398e-07  3.8062e-07  1.2928e-07  1.3057e-03  3.9257e-02  4.3776e-01  0:54:00  590
    11  2.1592e-01  2.0240e-07  2.6829e-07  3.1107e-07  1.1352e-07  9.6074e-04  3.8775e-02  4.4298e-01  0:51:25  589

  iter  continuity  x-velocity  y-velocity  z-velocity      energy         nut          cd          cl     time/iter
    12  1.7674e-01  1.8583e-07  2.2468e-07  2.6017e-07  9.8810e-08  6.8662e-04  3.8478e-02  4.4754e-01  0:49:19  588
    13  1.4625e-01  1.6911e-07  1.9040e-07  2.2397e-07  8.5451e-08  4.8117e-04  3.8316e-02  4.5162e-01  0:47:38  587
    14  1.2347e-01  1.5224e-07  1.6266e-07  1.9666e-07  7.3634e-08  3.2918e-04  3.8243e-02  4.5516e-01  0:46:16  586
    15  1.0624e-01  1.3609e-07  1.3956e-07  1.7469e-07  6.3370e-08  2.2008e-04  3.8231e-02  4.5820e-01  0:45:03  585
    16  9.2438e-02  1.2147e-07  1.1986e-07  1.5564e-07  5.4524e-08  1.4414e-04  3.8255e-02  4.6073e-01  0:44:04  584
    17  8.0996e-02  1.0846e-07  1.0263e-07  1.3834e-07  4.6937e-08  9.2498e-05  3.8300e-02  4.6282e-01  0:43:16  583
    18  7.1271e-02  9.6745e-08  8.7420e-08  1.2227e-07  4.0325e-08  5.8224e-05  3.8356e-02  4.6450e-01  0:42:37  582
    19  6.2914e-02  8.6120e-08  7.3928e-08  1.0717e-07  3.4578e-08  3.5986e-05  3.8412e-02  4.6585e-01  0:42:05  581
    20  5.5715e-02  7.6391e-08  6.2110e-08  9.2983e-08  2.9548e-08  2.1869e-05  3.8463e-02  4.6692e-01  0:41:39  580
    21  4.9387e-02  6.7368e-08  5.1908e-08  8.0359e-08  2.5160e-08  1.3075e-05  3.8508e-02  4.6777e-01  0:41:17  579
    22  4.3784e-02  5.8975e-08  4.3281e-08  6.9504e-08  2.1306e-08  7.7059e-06  3.8546e-02  4.6845e-01  0:40:58  578

  iter  continuity  x-velocity  y-velocity  z-velocity      energy         nut          cd          cl     time/iter
    23  3.8799e-02  5.1272e-08  3.6015e-08  6.0181e-08  1.7931e-08  4.4833e-06  3.8577e-02  4.6899e-01  0:40:43  577
    24  3.4364e-02  4.4412e-08  3.0018e-08  5.2326e-08  1.5008e-08  2.5841e-06  3.8600e-02  4.6941e-01  0:40:30  576
    25  3.0407e-02  3.8373e-08  2.5089e-08  4.5763e-08  1.2533e-08  1.4793e-06  3.8618e-02  4.6976e-01  0:40:19  575
    26  2.6910e-02  3.3216e-08  2.1045e-08  4.0139e-08  1.0456e-08  8.4641e-07  3.8631e-02  4.7003e-01  0:40:09  574
    27  2.3821e-02  2.8903e-08  1.7747e-08  3.5184e-08  8.7592e-09  4.8730e-07  3.8640e-02  4.7024e-01  0:40:00  573
    28  2.1065e-02  2.5407e-08  1.5123e-08  3.0829e-08  7.4083e-09  2.8550e-07  3.8646e-02  4.7041e-01  0:40:06  572
    29  1.8617e-02  2.2605e-08  1.3037e-08  2.7073e-08  6.3640e-09  1.7243e-07  3.8650e-02  4.7055e-01  0:39:56  571
    30  1.6479e-02  2.0427e-08  1.1393e-08  2.3778e-08  5.5738e-09  1.0900e-07  3.8652e-02  4.7065e-01  0:39:47  570
    31  1.4641e-02  1.8720e-08  1.0083e-08  2.0914e-08  4.9718e-09  7.3059e-08  3.8654e-02  4.7074e-01  0:39:39  569
    32  1.3039e-02  1.7331e-08  8.9935e-09  1.8413e-08  4.4996e-09  5.2131e-08  3.8654e-02  4.7081e-01  0:39:32  568
    33  1.1611e-02  1.6120e-08  8.0400e-09  1.6381e-08  4.1129e-09  3.9477e-08  3.8655e-02  4.7086e-01  0:39:15  567

  iter  continuity  x-velocity  y-velocity  z-velocity      energy         nut          cd          cl     time/iter
    34  1.0331e-02  1.5021e-08  7.1943e-09  1.4831e-08  3.6855e-09  3.1747e-08  3.8655e-02  4.7090e-01  0:39:01  566
    35  9.1516e-03  1.3979e-08  6.4469e-09  1.3606e-08  3.3935e-09  2.5851e-08  3.8655e-02  4.7094e-01  0:38:49  565
    36  8.1169e-03  1.2976e-08  5.7774e-09  1.2582e-08  3.1291e-09  2.1525e-08  3.8655e-02  4.7097e-01  0:38:38  564
    37  7.1806e-03  1.2003e-08  5.1763e-09  1.1682e-08  2.8869e-09  1.8180e-08  3.8655e-02  4.7099e-01  0:38:30  563
    38  6.3455e-03  1.1072e-08  4.6511e-09  1.0857e-08  2.6634e-09  1.5496e-08  3.8655e-02  4.7100e-01  0:38:21  562
    39  5.5947e-03  1.0178e-08  4.2002e-09  1.0077e-08  2.4530e-09  1.3213e-08  3.8656e-02  4.7102e-01  0:38:14  561
    40  4.9490e-03  9.3291e-09  3.8105e-09  9.3262e-09  2.2538e-09  1.1319e-08  3.8656e-02  4.7103e-01  0:38:07  560
    41  4.4143e-03  8.5339e-09  3.4703e-09  8.5976e-09  2.0644e-09  9.6756e-09  3.8656e-02  4.7104e-01  0:38:01  559
    42  3.9810e-03  7.7965e-09  3.1847e-09  7.9035e-09  1.8826e-09  8.3064e-09  3.8656e-02  4.7105e-01  0:37:55  558
    43  3.6296e-03  7.1306e-09  2.9366e-09  7.2511e-09  1.7098e-09  7.1262e-09  3.8656e-02  4.7105e-01  0:37:50  557
    44  3.3284e-03  6.5283e-09  2.7088e-09  6.6364e-09  1.5454e-09  6.1504e-09  3.8656e-02  4.7105e-01  0:37:44  556

  iter  continuity  x-velocity  y-velocity  z-velocity      energy         nut          cd          cl     time/iter
    45  3.0576e-03  5.9833e-09  2.4894e-09  6.0500e-09  1.3901e-09  5.3118e-09  3.8656e-02  4.7106e-01  0:37:39  555
    46  2.8150e-03  5.4742e-09  2.2728e-09  5.4918e-09  1.2446e-09  4.6176e-09  3.8656e-02  4.7106e-01  0:37:34  554
    47  2.5880e-03  4.9789e-09  2.0565e-09  4.9598e-09  1.1095e-09  4.0204e-09  3.8656e-02  4.7106e-01  0:37:30  553
    48  2.3766e-03  4.5003e-09  1.8430e-09  4.4539e-09  9.8484e-10  3.5200e-09  3.8656e-02  4.7106e-01  0:37:25  552
    49  2.1837e-03  4.0414e-09  1.6355e-09  3.9780e-09  8.7060e-10  3.0873e-09  3.8656e-02  4.7107e-01  0:37:21  551
    50  2.0038e-03  3.6117e-09  1.4441e-09  3.5379e-09  7.6799e-10  2.7192e-09  3.8656e-02  4.7107e-01  0:37:17  550
    51  1.8377e-03  3.2180e-09  1.2747e-09  3.1362e-09  6.7813e-10  2.3950e-09  3.8656e-02  4.7107e-01  0:37:13  549
    52  1.6840e-03  2.8667e-09  1.1247e-09  2.7688e-09  6.0033e-10  2.1129e-09  3.8656e-02  4.7107e-01  0:37:09  548
    53  1.5400e-03  2.5600e-09  9.9416e-10  2.4466e-09  5.3456e-10  1.8612e-09  3.8656e-02  4.7107e-01  0:37:05  547
    54  1.4060e-03  2.2999e-09  8.8621e-10  2.1569e-09  4.8011e-10  1.6392e-09  3.8656e-02  4.7107e-01  0:37:02  546
    55  1.2816e-03  2.0825e-09  7.9732e-10  1.8949e-09  4.3533e-10  1.4407e-09  3.8656e-02  4.7107e-01  0:36:58  545

  iter  continuity  x-velocity  y-velocity  z-velocity      energy         nut          cd          cl     time/iter
    56  1.1651e-03  1.9014e-09  7.2499e-10  1.6611e-09  3.9886e-10  1.2645e-09  3.8656e-02  4.7107e-01  0:36:54  544
    57  1.0571e-03  1.7503e-09  6.6671e-10  1.4505e-09  3.6925e-10  1.1077e-09  3.8656e-02  4.7107e-01  0:36:49  543
    58  9.5649e-04  1.6207e-09  6.1519e-10  1.2651e-09  3.4414e-10  9.6957e-10  3.8656e-02  4.7107e-01  0:36:45  542
    59  8.6315e-04  1.5079e-09  5.7219e-10  1.1039e-09  3.2259e-10  8.4745e-10  3.8656e-02  4.7107e-01  0:36:40  541
    60  7.7810e-04  1.4082e-09  5.3557e-10  9.7290e-10  3.0322e-10  7.3977e-10  3.8656e-02  4.7107e-01  0:36:36  540
    61  7.0048e-04  1.3190e-09  5.0348e-10  8.7557e-10  2.8574e-10  6.4522e-10  3.8656e-02  4.7107e-01  0:36:31  539
    62  6.2943e-04  1.2374e-09  4.7608e-10  8.0377e-10  2.6974e-10  5.6257e-10  3.8656e-02  4.7107e-01  0:36:27  538
    63  5.6540e-04  1.1610e-09  4.5174e-10  7.4990e-10  2.5452e-10  4.9151e-10  3.8656e-02  4.7107e-01  0:36:23  537
    64  5.1014e-04  1.0875e-09  4.2916e-10  7.0660e-10  2.4006e-10  4.3057e-10  3.8656e-02  4.7107e-01  0:36:20  536
    65  4.6330e-04  1.0158e-09  4.0643e-10  6.6992e-10  2.2585e-10  3.7774e-10  3.8656e-02  4.7107e-01  0:36:17  535
    66  4.2360e-04  9.4654e-10  3.8335e-10  6.3714e-10  2.1160e-10  3.3196e-10  3.8656e-02  4.7107e-01  0:36:12  534

  iter  continuity  x-velocity  y-velocity  z-velocity      energy         nut          cd          cl     time/iter
    67  3.9023e-04  8.7926e-10  3.5911e-10  6.0635e-10  1.9740e-10  2.9314e-10  3.8656e-02  4.7107e-01  0:36:09  533
    68  3.6088e-04  8.1650e-10  3.3364e-10  5.7601e-10  1.8340e-10  2.6095e-10  3.8656e-02  4.7107e-01  0:36:05  532
    69  3.3451e-04  7.5820e-10  3.0762e-10  5.4575e-10  1.6959e-10  2.3542e-10  3.8656e-02  4.7107e-01  0:36:01  531
    70  3.1065e-04  7.0247e-10  2.8156e-10  5.1495e-10  1.5606e-10  2.1645e-10  3.8656e-02  4.7107e-01  0:35:56  530
    71  2.8864e-04  6.4842e-10  2.5554e-10  4.8366e-10  1.4291e-10  2.0300e-10  3.8656e-02  4.7107e-01  0:35:51  529
    72  2.6787e-04  5.9552e-10  2.3033e-10  4.5195e-10  1.3034e-10  1.9363e-10  3.8656e-02  4.7107e-01  0:36:01  528
    73  2.4880e-04  5.4463e-10  2.0645e-10  4.2045e-10  1.1835e-10  1.8685e-10  3.8656e-02  4.7107e-01  0:35:54  527
    74  2.3091e-04  4.9617e-10  1.8397e-10  3.8928e-10  1.0705e-10  1.8138e-10  3.8656e-02  4.7107e-01  0:35:47  526
    75  2.1442e-04  4.5045e-10  1.6321e-10  3.5833e-10  9.6456e-11  1.7616e-10  3.8656e-02  4.7107e-01  0:35:41  525
    76  1.9899e-04  4.0761e-10  1.4452e-10  3.2835e-10  8.6671e-11  1.7167e-10  3.8656e-02  4.7107e-01  0:35:36  524
    77  1.8453e-04  3.6825e-10  1.2794e-10  2.9973e-10  7.7770e-11  1.6694e-10  3.8656e-02  4.7107e-01  0:35:30  523

  iter  continuity  x-velocity  y-velocity  z-velocity      energy         nut          cd          cl     time/iter
    78  1.7097e-04  3.3280e-10  1.1327e-10  2.7231e-10  6.9819e-11  1.6179e-10  3.8656e-02  4.7107e-01  0:35:26  522
    79  1.5821e-04  3.0122e-10  1.0058e-10  2.4645e-10  6.2742e-11  1.5681e-10  3.8656e-02  4.7107e-01  0:35:22  521
    80  1.4628e-04  2.7333e-10  8.9358e-11  2.2241e-10  5.6509e-11  1.5144e-10  3.8656e-02  4.7107e-01  0:35:17  520
    81  1.3510e-04  2.4881e-10  7.9915e-11  2.0026e-10  5.1028e-11  1.4568e-10  3.8656e-02  4.7107e-01  0:35:13  519
    82  1.2466e-04  2.2732e-10  7.2027e-11  1.7965e-10  4.6291e-11  1.4015e-10  3.8656e-02  4.7107e-01  0:35:08  518
    83  1.1491e-04  2.0846e-10  6.5590e-11  1.6067e-10  4.2222e-11  1.3433e-10  3.8656e-02  4.7107e-01  0:35:03  517
    84  1.0575e-04  1.9184e-10  6.0185e-11  1.4303e-10  3.8690e-11  1.2831e-10  3.8656e-02  4.7107e-01  0:34:59  516
!   85 solution is converged
    85  9.7271e-05  1.7719e-10  5.5451e-11  1.2713e-10  3.5615e-11  1.2262e-10  3.8656e-02  4.7107e-01  0:34:55  515


> q 

> solve/set/discretization-scheme pressure 12 

> solve/set/discretization-scheme density 1 

> solve/set/discretization-scheme mom 1 

> solve/set/discretization-scheme nut 1 

> solve/set/discretization-scheme temperature 1 

> solve/iterate/200 plot-residuals: no graphics functions available.

  iter  continuity  x-velocity  y-velocity  z-velocity      energy         nut          cd          cl     time/iter
!   85 solution is converged
    85  9.7271e-05  1.7719e-10  5.5451e-11  1.2713e-10  3.5615e-11  1.2262e-10  3.8656e-02  4.7107e-01  0:13:34  200
    86  2.4045e+00  3.3301e-06  5.5630e-06  6.0391e-06  4.3961e-07  2.5564e-04  3.6622e-02  4.7758e-01  0:13:17  199
    87  1.5512e+00  1.9168e-06  3.4651e-06  3.7026e-06  4.2346e-07  1.3473e-04  3.5049e-02  4.8473e-01  0:12:56  198
    88  1.1491e+00  1.2410e-06  2.3083e-06  2.4617e-06  3.5696e-07  9.5081e-05  3.3109e-02  4.9702e-01  0:13:12  197
    89  9.3662e-01  9.5925e-07  1.7359e-06  1.8650e-06  3.0913e-07  7.9189e-05  3.1561e-02  5.0740e-01  0:13:23  196
    90  8.0425e-01  8.2907e-07  1.4471e-06  1.5636e-06  2.7443e-07  7.0888e-05  3.0276e-02  5.1524e-01  0:13:32  195
    91  7.1350e-01  7.5237e-07  1.2711e-06  1.3775e-06  2.4888e-07  6.5192e-05  2.9167e-02  5.2138e-01  0:13:37  194
    92  6.4463e-01  6.9064e-07  1.1422e-06  1.2363e-06  2.2840e-07  6.0001e-05  2.8216e-02  5.2593e-01  0:13:41  193
    93  5.8968e-01  6.3926e-07  1.0353e-06  1.1210e-06  2.1130e-07  5.5675e-05  2.7407e-02  5.2947e-01  0:13:44  192
    94  5.4205e-01  5.9449e-07  9.4218e-07  1.0164e-06  1.9582e-07  5.1688e-05  2.6725e-02  5.3201e-01  0:13:45  191
    95  5.0102e-01  5.5707e-07  8.5969e-07  9.2296e-07  1.8225e-07  4.8126e-05  2.6154e-02  5.3397e-01  0:13:45  190

  iter  continuity  x-velocity  y-velocity  z-velocity      energy         nut          cd          cl     time/iter
    96  4.6487e-01  5.2318e-07  7.8495e-07  8.3877e-07  1.7002e-07  4.4722e-05  2.5672e-02  5.3544e-01  0:13:44  189
    97  4.3232e-01  4.9357e-07  7.1707e-07  7.6243e-07  1.5898e-07  4.1502e-05  2.5277e-02  5.3659e-01  0:13:42  188
    98  4.0269e-01  4.6450e-07  6.5522e-07  6.9322e-07  1.4923e-07  3.8422e-05  2.4944e-02  5.3741e-01  0:13:39  187
    99  3.7563e-01  4.3785e-07  5.9854e-07  6.2997e-07  1.3991e-07  3.5478e-05  2.4674e-02  5.3802e-01  0:13:37  186
   100  3.5116e-01  4.1250e-07  5.4642e-07  5.7313e-07  1.3107e-07  3.2651e-05  2.4449e-02  5.3841e-01  0:13:34  185
   101  3.2899e-01  3.8900e-07  4.9907e-07  5.2229e-07  1.2282e-07  2.9952e-05  2.4267e-02  5.3870e-01  0:13:31  184
   102  3.0832e-01  3.6795e-07  4.5702e-07  4.7767e-07  1.1541e-07  2.7324e-05  2.4119e-02  5.3886e-01  0:13:27  183
   103  2.8889e-01  3.4761e-07  4.2048e-07  4.3678e-07  1.0823e-07  2.4948e-05  2.4000e-02  5.3892e-01  0:13:23  182
   104  2.7057e-01  3.2802e-07  3.8672e-07  4.0123e-07  1.0173e-07  2.2632e-05  2.3903e-02  5.3892e-01  0:13:19  181
   105  2.5321e-01  3.1101e-07  3.5538e-07  3.6907e-07  9.5652e-08  2.0551e-05  2.3829e-02  5.3887e-01  0:13:15  180
   106  2.3644e-01  2.9598e-07  3.2630e-07  3.4074e-07  9.0095e-08  1.8620e-05  2.3768e-02  5.3878e-01  0:13:11  179

  iter  continuity  x-velocity  y-velocity  z-velocity      energy         nut          cd          cl     time/iter
   107  2.2089e-01  2.8143e-07  3.0256e-07  3.1496e-07  8.4963e-08  1.6824e-05  2.3719e-02  5.3867e-01  0:13:06  178
   108  2.0691e-01  2.6662e-07  2.7957e-07  2.9155e-07  7.9983e-08  1.5214e-05  2.3680e-02  5.3853e-01  0:13:02  177
   109  1.9424e-01  2.5217e-07  2.5751e-07  2.7060e-07  7.5348e-08  1.3782e-05  2.3648e-02  5.3837e-01  0:13:03  176
   110  1.8247e-01  2.3767e-07  2.3722e-07  2.5165e-07  7.1024e-08  1.2547e-05  2.3624e-02  5.3819e-01  0:12:58  175
   111  1.7109e-01  2.2461e-07  2.1869e-07  2.3399e-07  6.7058e-08  1.1467e-05  2.3606e-02  5.3800e-01  0:12:53  174
   112  1.6063e-01  2.1174e-07  2.0217e-07  2.1733e-07  6.3296e-08  1.0588e-05  2.3592e-02  5.3783e-01  0:12:48  173
   113  1.5114e-01  1.9994e-07  1.8720e-07  2.0275e-07  5.9765e-08  9.8528e-06  2.3584e-02  5.3765e-01  0:12:43  172
   114  1.4224e-01  1.8917e-07  1.7360e-07  1.8990e-07  5.6551e-08  9.3476e-06  2.3580e-02  5.3747e-01  0:12:38  171
   115  1.3404e-01  1.7888e-07  1.6137e-07  1.7837e-07  5.3578e-08  8.8375e-06  2.3578e-02  5.3731e-01  0:12:33  170
   116  1.2645e-01  1.6931e-07  1.5048e-07  1.6784e-07  5.0797e-08  8.4192e-06  2.3578e-02  5.3714e-01  0:12:28  169
   117  1.1955e-01  1.6091e-07  1.4041e-07  1.5737e-07  4.8251e-08  7.9469e-06  2.3580e-02  5.3698e-01  0:12:24  168

  iter  continuity  x-velocity  y-velocity  z-velocity      energy         nut          cd          cl     time/iter
   118  1.1351e-01  1.5315e-07  1.3136e-07  1.4818e-07  4.5923e-08  7.5157e-06  2.3584e-02  5.3682e-01  0:12:19  167
   119  1.0789e-01  1.4585e-07  1.2298e-07  1.3872e-07  4.3675e-08  7.0636e-06  2.3590e-02  5.3668e-01  0:12:15  166
   120  1.0235e-01  1.3955e-07  1.1550e-07  1.2849e-07  4.1564e-08  6.6764e-06  2.3596e-02  5.3654e-01  0:12:10  165
   121  9.6647e-02  1.3258e-07  1.0847e-07  1.1917e-07  3.9481e-08  6.2640e-06  2.3602e-02  5.3640e-01  0:12:06  164
   122  9.1132e-02  1.2570e-07  1.0156e-07  1.1090e-07  3.7461e-08  5.8931e-06  2.3610e-02  5.3628e-01  0:12:01  163
   123  8.5933e-02  1.1925e-07  9.5213e-08  1.0338e-07  3.5539e-08  5.4853e-06  2.3618e-02  5.3616e-01  0:11:56  162
   124  8.0862e-02  1.1303e-07  8.9322e-08  9.6149e-08  3.3704e-08  5.1685e-06  2.3627e-02  5.3605e-01  0:11:52  161
   125  7.6051e-02  1.0712e-07  8.3885e-08  8.9246e-08  3.1932e-08  4.8629e-06  2.3636e-02  5.3596e-01  0:11:48  160
   126  7.1638e-02  1.0152e-07  7.8810e-08  8.2660e-08  3.0220e-08  4.5774e-06  2.3645e-02  5.3587e-01  0:11:43  159
   127  6.7471e-02  9.6496e-08  7.3981e-08  7.6878e-08  2.8676e-08  4.2793e-06  2.3653e-02  5.3579e-01  0:11:39  158
   128  6.3588e-02  9.1845e-08  6.9412e-08  7.1914e-08  2.7251e-08  4.0034e-06  2.3660e-02  5.3572e-01  0:11:34  157

  iter  continuity  x-velocity  y-velocity  z-velocity      energy         nut          cd          cl     time/iter
   129  5.9947e-02  8.7453e-08  6.5100e-08  6.7531e-08  2.5945e-08  3.7603e-06  2.3668e-02  5.3565e-01  0:11:30  156
   130  5.6595e-02  8.3151e-08  6.1142e-08  6.3572e-08  2.4699e-08  3.5129e-06  2.3675e-02  5.3559e-01  0:11:25  155
   131  5.3535e-02  7.9182e-08  5.7448e-08  5.9853e-08  2.3516e-08  3.2638e-06  2.3683e-02  5.3554e-01  0:11:21  154
   132  5.0701e-02  7.5469e-08  5.3951e-08  5.6321e-08  2.2383e-08  3.0313e-06  2.3689e-02  5.3549e-01  0:11:16  153
   133  4.8113e-02  7.2058e-08  5.0853e-08  5.3112e-08  2.1339e-08  2.8352e-06  2.3695e-02  5.3545e-01  0:11:12  152
   134  4.5707e-02  6.8504e-08  4.8053e-08  5.0170e-08  2.0313e-08  2.6845e-06  2.3700e-02  5.3541e-01  0:11:07  151
   135  4.3414e-02  6.5108e-08  4.5449e-08  4.7405e-08  1.9348e-08  2.5512e-06  2.3705e-02  5.3537e-01  0:11:03  150
   136  4.1235e-02  6.2075e-08  4.3005e-08  4.4806e-08  1.8469e-08  2.4199e-06  2.3711e-02  5.3534e-01  0:10:59  149
   137  3.9185e-02  5.9204e-08  4.0793e-08  4.2408e-08  1.7633e-08  2.3031e-06  2.3716e-02  5.3530e-01  0:10:54  148
   138  3.7240e-02  5.6200e-08  3.8723e-08  4.0130e-08  1.6814e-08  2.2021e-06  2.3720e-02  5.3527e-01  0:10:50  147
   139  3.5453e-02  5.3675e-08  3.6752e-08  3.7989e-08  1.6033e-08  2.1237e-06  2.3724e-02  5.3525e-01  0:10:46  146

  iter  continuity  x-velocity  y-velocity  z-velocity      energy         nut          cd          cl     time/iter
   140  3.3776e-02  5.1341e-08  3.4873e-08  3.6022e-08  1.5337e-08  2.0297e-06  2.3728e-02  5.3522e-01  0:10:41  145
   141  3.2201e-02  4.9054e-08  3.3125e-08  3.4177e-08  1.4679e-08  1.9350e-06  2.3731e-02  5.3520e-01  0:10:37  144
   142  3.0709e-02  4.6930e-08  3.1451e-08  3.2461e-08  1.4064e-08  1.8650e-06  2.3734e-02  5.3518e-01  0:10:32  143
   143  2.9300e-02  4.4896e-08  2.9881e-08  3.0838e-08  1.3468e-08  1.8126e-06  2.3736e-02  5.3516e-01  0:10:28  142
   144  2.7979e-02  4.3022e-08  2.8423e-08  2.9329e-08  1.2907e-08  1.7670e-06  2.3738e-02  5.3515e-01  0:10:23  141
   145  2.6737e-02  4.1244e-08  2.7033e-08  2.7890e-08  1.2382e-08  1.6964e-06  2.3740e-02  5.3513e-01  0:10:19  140
   146  2.5553e-02  3.9549e-08  2.5698e-08  2.6523e-08  1.1880e-08  1.6426e-06  2.3741e-02  5.3511e-01  0:10:15  139
   147  2.4412e-02  3.7881e-08  2.4438e-08  2.5253e-08  1.1387e-08  1.5951e-06  2.3743e-02  5.3510e-01  0:10:10  138
   148  2.3323e-02  3.6261e-08  2.3265e-08  2.4071e-08  1.0914e-08  1.5387e-06  2.3744e-02  5.3508e-01  0:10:06  137
   149  2.2282e-02  3.4725e-08  2.2160e-08  2.2950e-08  1.0461e-08  1.4707e-06  2.3745e-02  5.3507e-01  0:10:01  136
   150  2.1283e-02  3.3270e-08  2.1120e-08  2.1896e-08  1.0040e-08  1.4136e-06  2.3746e-02  5.3506e-01  0:09:57  135

  iter  continuity  x-velocity  y-velocity  z-velocity      energy         nut          cd          cl     time/iter
   151  2.0352e-02  3.1905e-08  2.0134e-08  2.0901e-08  9.6355e-09  1.3760e-06  2.3746e-02  5.3505e-01  0:09:52  134
   152  1.9475e-02  3.0625e-08  1.9206e-08  1.9949e-08  9.2512e-09  1.3467e-06  2.3747e-02  5.3504e-01  0:09:52  133
   153  1.8654e-02  2.9413e-08  1.8344e-08  1.9062e-08  8.8865e-09  1.3061e-06  2.3747e-02  5.3502e-01  0:09:46  132
   154  1.7884e-02  2.8257e-08  1.7530e-08  1.8221e-08  8.5420e-09  1.2587e-06  2.3747e-02  5.3501e-01  0:09:41  131
   155  1.7162e-02  2.7148e-08  1.6771e-08  1.7430e-08  8.2069e-09  1.2234e-06  2.3747e-02  5.3500e-01  0:09:36  130
   156  1.6484e-02  2.6090e-08  1.6062e-08  1.6706e-08  7.8898e-09  1.2037e-06  2.3746e-02  5.3499e-01  0:09:32  129
   157  1.5843e-02  2.5102e-08  1.5387e-08  1.6018e-08  7.5837e-09  1.1736e-06  2.3746e-02  5.3497e-01  0:09:27  128
   158  1.5210e-02  2.4147e-08  1.4753e-08  1.5349e-08  7.2906e-09  1.1191e-06  2.3745e-02  5.3496e-01  0:09:22  127
   159  1.4600e-02  2.3149e-08  1.4144e-08  1.4708e-08  6.9970e-09  1.0823e-06  2.3745e-02  5.3494e-01  0:09:18  126
   160  1.4023e-02  2.2207e-08  1.3549e-08  1.4095e-08  6.7212e-09  1.0482e-06  2.3744e-02  5.3493e-01  0:09:13  125
   161  1.3487e-02  2.1324e-08  1.2981e-08  1.3522e-08  6.4541e-09  1.0301e-06  2.3744e-02  5.3492e-01  0:09:09  124

  iter  continuity  x-velocity  y-velocity  z-velocity      energy         nut          cd          cl     time/iter
   162  1.2977e-02  2.0495e-08  1.2441e-08  1.2980e-08  6.2051e-09  9.9633e-07  2.3743e-02  5.3491e-01  0:09:04  123
   163  1.2484e-02  1.9717e-08  1.1938e-08  1.2464e-08  5.9655e-09  9.7751e-07  2.3743e-02  5.3490e-01  0:09:00  122
   164  1.2012e-02  1.8982e-08  1.1465e-08  1.1974e-08  5.7418e-09  9.6959e-07  2.3742e-02  5.3488e-01  0:08:55  121
   165  1.1560e-02  1.8296e-08  1.1015e-08  1.1512e-08  5.5276e-09  9.4968e-07  2.3741e-02  5.3487e-01  0:08:51  120
   166  1.1131e-02  1.7631e-08  1.0587e-08  1.1069e-08  5.3245e-09  9.1506e-07  2.3741e-02  5.3486e-01  0:08:47  119
   167  1.0724e-02  1.6997e-08  1.0180e-08  1.0652e-08  5.1268e-09  8.8272e-07  2.3740e-02  5.3486e-01  0:08:42  118
   168  1.0328e-02  1.6362e-08  9.8005e-09  1.0256e-08  4.9373e-09  8.6535e-07  2.3740e-02  5.3485e-01  0:08:38  117
   169  9.9515e-03  1.5764e-08  9.4405e-09  9.8761e-09  4.7534e-09  8.5788e-07  2.3739e-02  5.3484e-01  0:08:33  116
   170  9.5944e-03  1.5200e-08  9.0992e-09  9.5193e-09  4.5815e-09  8.4833e-07  2.3739e-02  5.3483e-01  0:08:29  115
   171  9.2553e-03  1.4668e-08  8.7706e-09  9.1832e-09  4.4184e-09  8.2313e-07  2.3738e-02  5.3483e-01  0:08:24  114
   172  8.9337e-03  1.4170e-08  8.4600e-09  8.8618e-09  4.2642e-09  8.0700e-07  2.3738e-02  5.3482e-01  0:08:20  113

  iter  continuity  x-velocity  y-velocity  z-velocity      energy         nut          cd          cl     time/iter
   173  8.6255e-03  1.3699e-08  8.1646e-09  8.5494e-09  4.1164e-09  7.9571e-07  2.3737e-02  5.3482e-01  0:08:15  112
   174  8.3292e-03  1.3247e-08  7.8860e-09  8.2538e-09  3.9764e-09  7.9159e-07  2.3737e-02  5.3481e-01  0:08:11  111
   175  8.0415e-03  1.2810e-08  7.6189e-09  7.9720e-09  3.8395e-09  7.7757e-07  2.3736e-02  5.3481e-01  0:08:07  110
   176  7.7679e-03  1.2387e-08  7.3668e-09  7.7010e-09  3.7083e-09  7.5238e-07  2.3736e-02  5.3481e-01  0:08:02  109
   177  7.5079e-03  1.1978e-08  7.1286e-09  7.4429e-09  3.5811e-09  7.2048e-07  2.3735e-02  5.3480e-01  0:07:58  108
   178  7.2587e-03  1.1593e-08  6.8969e-09  7.1982e-09  3.4597e-09  7.0628e-07  2.3735e-02  5.3480e-01  0:07:53  107
   179  7.0174e-03  1.1215e-08  6.6684e-09  6.9629e-09  3.3422e-09  7.0356e-07  2.3735e-02  5.3480e-01  0:07:49  106
   180  6.7872e-03  1.0858e-08  6.4514e-09  6.7344e-09  3.2314e-09  7.0756e-07  2.3734e-02  5.3480e-01  0:07:45  105
   181  6.5685e-03  1.0525e-08  6.2376e-09  6.5147e-09  3.1252e-09  6.8378e-07  2.3734e-02  5.3479e-01  0:07:40  104
   182  6.3596e-03  1.0208e-08  6.0364e-09  6.3042e-09  3.0237e-09  6.7457e-07  2.3734e-02  5.3479e-01  0:07:36  103
   183  6.1570e-03  9.9052e-09  5.8396e-09  6.1043e-09  2.9264e-09  6.6627e-07  2.3733e-02  5.3479e-01  0:07:31  102

  iter  continuity  x-velocity  y-velocity  z-velocity      energy         nut          cd          cl     time/iter
   184  5.9618e-03  9.6095e-09  5.6476e-09  5.9119e-09  2.8337e-09  6.5732e-07  2.3733e-02  5.3479e-01  0:07:27  101
   185  5.7743e-03  9.3403e-09  5.4599e-09  5.7259e-09  2.7456e-09  6.2265e-07  2.3733e-02  5.3479e-01  0:07:22  100
   186  5.5962e-03  9.0495e-09  5.2857e-09  5.5530e-09  2.6575e-09  6.0525e-07  2.3733e-02  5.3479e-01  0:07:18   99
   187  5.4292e-03  8.8069e-09  5.1218e-09  5.3869e-09  2.5755e-09  5.9652e-07  2.3732e-02  5.3479e-01  0:07:13   98
   188  5.2622e-03  8.5721e-09  4.9660e-09  5.2159e-09  2.4990e-09  6.0663e-07  2.3732e-02  5.3479e-01  0:07:09   97
   189  5.0730e-03  8.2812e-09  4.8232e-09  5.0594e-09  2.4172e-09  5.9868e-07  2.3732e-02  5.3479e-01  0:07:05   96
   190  4.8953e-03  7.9924e-09  4.6802e-09  4.8929e-09  2.3338e-09  5.8274e-07  2.3732e-02  5.3479e-01  0:07:00   95
   191  4.7346e-03  7.7373e-09  4.5258e-09  4.7242e-09  2.2557e-09  5.7565e-07  2.3731e-02  5.3479e-01  0:06:56   94
   192  4.5758e-03  7.5027e-09  4.3684e-09  4.5584e-09  2.1810e-09  5.8849e-07  2.3731e-02  5.3479e-01  0:06:51   93
   193  4.4222e-03  7.2831e-09  4.2145e-09  4.3978e-09  2.1089e-09  5.8408e-07  2.3731e-02  5.3479e-01  0:06:47   92
   194  4.2744e-03  7.0717e-09  4.0648e-09  4.2437e-09  2.0408e-09  5.6292e-07  2.3731e-02  5.3479e-01  0:06:42   91

  iter  continuity  x-velocity  y-velocity  z-velocity      energy         nut          cd          cl     time/iter
   195  4.1323e-03  6.8707e-09  3.9263e-09  4.0971e-09  1.9766e-09  5.4104e-07  2.3730e-02  5.3479e-01  0:06:38   90
   196  3.9945e-03  6.6758e-09  3.7973e-09  3.9561e-09  1.9153e-09  5.3374e-07  2.3730e-02  5.3479e-01  0:06:36   89
   197  3.8624e-03  6.4902e-09  3.6767e-09  3.8220e-09  1.8563e-09  5.3804e-07  2.3730e-02  5.3479e-01  0:06:31   88
   198  3.7341e-03  6.3089e-09  3.5621e-09  3.6903e-09  1.7991e-09  5.3726e-07  2.3730e-02  5.3479e-01  0:06:26   87
   199  3.6060e-03  6.1383e-09  3.4510e-09  3.5637e-09  1.7444e-09  5.2186e-07  2.3730e-02  5.3479e-01  0:06:21   86
   200  3.4843e-03  5.9653e-09  3.3428e-09  3.4413e-09  1.6909e-09  5.2607e-07  2.3729e-02  5.3479e-01  0:06:17   85
   201  3.3672e-03  5.7973e-09  3.2384e-09  3.3293e-09  1.6384e-09  5.2522e-07  2.3729e-02  5.3479e-01  0:06:12   84
   202  3.2582e-03  5.6345e-09  3.1377e-09  3.2248e-09  1.5884e-09  5.2359e-07  2.3729e-02  5.3479e-01  0:06:08   83
   203  3.1538e-03  5.4703e-09  3.0398e-09  3.1237e-09  1.5390e-09  5.0628e-07  2.3729e-02  5.3480e-01  0:06:03   82
   204  3.0538e-03  5.3075e-09  2.9449e-09  3.0274e-09  1.4903e-09  4.9176e-07  2.3729e-02  5.3480e-01  0:05:59   81
   205  2.9572e-03  5.1474e-09  2.8530e-09  2.9356e-09  1.4428e-09  4.8491e-07  2.3728e-02  5.3480e-01  0:05:54   80

  iter  continuity  x-velocity  y-velocity  z-velocity      energy         nut          cd          cl     time/iter
   206  2.8644e-03  4.9888e-09  2.7637e-09  2.8473e-09  1.3962e-09  4.8822e-07  2.3728e-02  5.3480e-01  0:05:50   79
   207  2.7719e-03  4.8284e-09  2.6778e-09  2.7577e-09  1.3503e-09  4.9606e-07  2.3728e-02  5.3480e-01  0:05:45   78
   208  2.6832e-03  4.6761e-09  2.5935e-09  2.6688e-09  1.3063e-09  5.0252e-07  2.3728e-02  5.3480e-01  0:05:41   77
   209  2.5975e-03  4.5284e-09  2.5130e-09  2.5854e-09  1.2639e-09  4.8560e-07  2.3728e-02  5.3480e-01  0:05:36   76
   210  2.5156e-03  4.3866e-09  2.4353e-09  2.5068e-09  1.2230e-09  4.8178e-07  2.3728e-02  5.3480e-01  0:05:32   75
   211  2.4365e-03  4.2499e-09  2.3604e-09  2.4297e-09  1.1840e-09  4.8746e-07  2.3728e-02  5.3480e-01  0:05:28   74
   212  2.3602e-03  4.1179e-09  2.2872e-09  2.3533e-09  1.1473e-09  4.9347e-07  2.3727e-02  5.3480e-01  0:05:23   73
   213  2.2864e-03  3.9895e-09  2.2169e-09  2.2799e-09  1.1115e-09  4.7970e-07  2.3727e-02  5.3480e-01  0:05:19   72
   214  2.2153e-03  3.8655e-09  2.1495e-09  2.2089e-09  1.0760e-09  4.6439e-07  2.3727e-02  5.3479e-01  0:05:14   71
   215  2.1459e-03  3.7445e-09  2.0851e-09  2.1412e-09  1.0418e-09  4.5323e-07  2.3727e-02  5.3479e-01  0:05:10   70
   216  2.0786e-03  3.6282e-09  2.0220e-09  2.0759e-09  1.0086e-09  4.5402e-07  2.3727e-02  5.3479e-01  0:05:05   69

  iter  continuity  x-velocity  y-velocity  z-velocity      energy         nut          cd          cl     time/iter
   217  2.0137e-03  3.5156e-09  1.9605e-09  2.0136e-09  9.7687e-10  4.6544e-07  2.3727e-02  5.3479e-01  0:05:01   68
   218  1.9499e-03  3.4056e-09  1.9012e-09  1.9534e-09  9.4540e-10  4.7474e-07  2.3727e-02  5.3479e-01  0:04:56   67
   219  1.8882e-03  3.2989e-09  1.8434e-09  1.8947e-09  9.1518e-10  4.6518e-07  2.3727e-02  5.3479e-01  0:04:52   66
   220  1.8287e-03  3.1944e-09  1.7878e-09  1.8380e-09  8.8541e-10  4.5708e-07  2.3727e-02  5.3479e-01  0:04:48   65
   221  1.7711e-03  3.0934e-09  1.7350e-09  1.7837e-09  8.5703e-10  4.5544e-07  2.3727e-02  5.3479e-01  0:04:43   64
   222  1.7155e-03  2.9982e-09  1.6829e-09  1.7304e-09  8.2971e-10  4.7033e-07  2.3726e-02  5.3479e-01  0:04:39   63
   223  1.6612e-03  2.9064e-09  1.6325e-09  1.6780e-09  8.0349e-10  4.6609e-07  2.3726e-02  5.3479e-01  0:04:34   62
   224  1.6090e-03  2.8174e-09  1.5832e-09  1.6268e-09  7.7772e-10  4.5033e-07  2.3726e-02  5.3479e-01  0:04:30   61
   225  1.5590e-03  2.7324e-09  1.5365e-09  1.5772e-09  7.5350e-10  4.3272e-07  2.3726e-02  5.3479e-01  0:04:25   60
   226  1.5111e-03  2.6521e-09  1.4908e-09  1.5292e-09  7.3086e-10  4.2810e-07  2.3726e-02  5.3479e-01  0:04:21   59
   227  1.4651e-03  2.5728e-09  1.4475e-09  1.4837e-09  7.0877e-10  4.3602e-07  2.3726e-02  5.3479e-01  0:04:17   58

  iter  continuity  x-velocity  y-velocity  z-velocity      energy         nut          cd          cl     time/iter
   228  1.4208e-03  2.4950e-09  1.4058e-09  1.4408e-09  6.8693e-10  4.4893e-07  2.3726e-02  5.3479e-01  0:04:12   57
   229  1.3785e-03  2.4221e-09  1.3650e-09  1.3997e-09  6.6604e-10  4.3711e-07  2.3726e-02  5.3479e-01  0:04:08   56
   230  1.3378e-03  2.3510e-09  1.3261e-09  1.3598e-09  6.4570e-10  4.2815e-07  2.3726e-02  5.3479e-01  0:04:03   55
   231  1.2979e-03  2.2810e-09  1.2887e-09  1.3206e-09  6.2619e-10  4.2985e-07  2.3726e-02  5.3479e-01  0:03:59   54
   232  1.2589e-03  2.2124e-09  1.2526e-09  1.2832e-09  6.0725e-10  4.4384e-07  2.3726e-02  5.3479e-01  0:03:54   53
   233  1.2211e-03  2.1460e-09  1.2170e-09  1.2472e-09  5.8882e-10  4.3948e-07  2.3726e-02  5.3479e-01  0:03:50   52
   234  1.1846e-03  2.0829e-09  1.1826e-09  1.2133e-09  5.7075e-10  4.2905e-07  2.3726e-02  5.3479e-01  0:03:46   51
   235  1.1502e-03  2.0223e-09  1.1494e-09  1.1811e-09  5.5327e-10  4.0918e-07  2.3726e-02  5.3479e-01  0:03:41   50
   236  1.1168e-03  1.9644e-09  1.1175e-09  1.1497e-09  5.3688e-10  4.1322e-07  2.3726e-02  5.3479e-01  0:03:37   49
   237  1.0839e-03  1.9094e-09  1.0874e-09  1.1171e-09  5.2109e-10  4.2195e-07  2.3726e-02  5.3479e-01  0:03:32   48
   238  1.0526e-03  1.8569e-09  1.0584e-09  1.0867e-09  5.0561e-10  4.3765e-07  2.3726e-02  5.3479e-01  0:03:28   47

  iter  continuity  x-velocity  y-velocity  z-velocity      energy         nut          cd          cl     time/iter
   239  1.0226e-03  1.8073e-09  1.0296e-09  1.0582e-09  4.9089e-10  4.2357e-07  2.3726e-02  5.3479e-01  0:03:25   46
   240  9.9386e-04  1.7602e-09  1.0016e-09  1.0306e-09  4.7720e-10  4.2845e-07  2.3726e-02  5.3479e-01  0:03:20   45
   241  9.6656e-04  1.7156e-09  9.7453e-10  1.0045e-09  4.6417e-10  4.2906e-07  2.3726e-02  5.3479e-01  0:03:15   44
   242  9.3957e-04  1.6693e-09  9.4828e-10  9.7883e-10  4.5113e-10  4.2781e-07  2.3727e-02  5.3479e-01  0:03:11   43
   243  9.1350e-04  1.6258e-09  9.2221e-10  9.5296e-10  4.3851e-10  4.0373e-07  2.3727e-02  5.3479e-01  0:03:06   42
   244  8.8784e-04  1.5851e-09  8.9746e-10  9.2573e-10  4.2668e-10  3.9193e-07  2.3727e-02  5.3479e-01  0:03:02   41
   245  8.6282e-04  1.5454e-09  8.7326e-10  8.9986e-10  4.1499e-10  3.9081e-07  2.3727e-02  5.3479e-01  0:02:57   40
   246  8.3865e-04  1.5070e-09  8.4997e-10  8.7533e-10  4.0374e-10  4.0269e-07  2.3727e-02  5.3479e-01  0:02:53   39
   247  8.1564e-04  1.4699e-09  8.2749e-10  8.5216e-10  3.9274e-10  4.0660e-07  2.3727e-02  5.3479e-01  0:02:48   38
   248  7.9361e-04  1.4341e-09  8.0599e-10  8.2955e-10  3.8237e-10  4.0753e-07  2.3727e-02  5.3479e-01  0:02:44   37
   249  7.7234e-04  1.3990e-09  7.8489e-10  8.0780e-10  3.7218e-10  3.9861e-07  2.3727e-02  5.3479e-01  0:02:39   36

  iter  continuity  x-velocity  y-velocity  z-velocity      energy         nut          cd          cl     time/iter
   250  7.5190e-04  1.3647e-09  7.6508e-10  7.8679e-10  3.6223e-10  4.0465e-07  2.3727e-02  5.3479e-01  0:02:35   35
   251  7.3231e-04  1.3313e-09  7.4611e-10  7.6666e-10  3.5302e-10  4.1331e-07  2.3727e-02  5.3479e-01  0:02:30   34
   252  7.1339e-04  1.2992e-09  7.2772e-10  7.4719e-10  3.4406e-10  4.0935e-07  2.3727e-02  5.3479e-01  0:02:26   33
   253  6.9494e-04  1.2671e-09  7.0990e-10  7.2859e-10  3.3531e-10  3.8561e-07  2.3727e-02  5.3479e-01  0:02:22   32
   254  6.7684e-04  1.2355e-09  6.9311e-10  7.0961e-10  3.2663e-10  3.8722e-07  2.3727e-02  5.3479e-01  0:02:17   31
   255  6.5901e-04  1.2048e-09  6.7643e-10  6.9010e-10  3.1819e-10  4.0054e-07  2.3727e-02  5.3479e-01  0:02:13   30
   256  6.4178e-04  1.1751e-09  6.6074e-10  6.7151e-10  3.1013e-10  4.1754e-07  2.3727e-02  5.3480e-01  0:02:08   29
   257  6.2517e-04  1.1458e-09  6.4526e-10  6.5392e-10  3.0229e-10  4.0600e-07  2.3727e-02  5.3480e-01  0:02:04   28
   258  6.0905e-04  1.1173e-09  6.3081e-10  6.3723e-10  2.9473e-10  4.0966e-07  2.3727e-02  5.3480e-01  0:01:59   27
   259  5.9331e-04  1.0897e-09  6.1687e-10  6.2071e-10  2.8728e-10  4.0874e-07  2.3727e-02  5.3480e-01  0:01:55   26
   260  5.7832e-04  1.0634e-09  6.0330e-10  6.0525e-10  2.8006e-10  4.1021e-07  2.3727e-02  5.3480e-01  0:01:51   25

  iter  continuity  x-velocity  y-velocity  z-velocity      energy         nut          cd          cl     time/iter
   261  5.6335e-04  1.0379e-09  5.8888e-10  5.9074e-10  2.7338e-10  3.8650e-07  2.3727e-02  5.3480e-01  0:01:46   24
   262  5.4891e-04  1.0130e-09  5.7541e-10  5.7657e-10  2.6703e-10  3.7704e-07  2.3727e-02  5.3480e-01  0:01:42   23
   263  5.3517e-04  9.8974e-10  5.6233e-10  5.6295e-10  2.6042e-10  3.7747e-07  2.3727e-02  5.3480e-01  0:01:37   22
   264  5.2229e-04  9.6778e-10  5.4975e-10  5.4980e-10  2.5391e-10  3.9609e-07  2.3727e-02  5.3480e-01  0:01:33   21
   265  5.0993e-04  9.4714e-10  5.3759e-10  5.3765e-10  2.4778e-10  3.9700e-07  2.3727e-02  5.3480e-01  0:01:29   20
   266  4.9820e-04  9.2756e-10  5.2611e-10  5.2651e-10  2.4222e-10  3.8559e-07  2.3727e-02  5.3480e-01  0:01:24   19
   267  4.8745e-04  9.0686e-10  5.1505e-10  5.1624e-10  2.3671e-10  3.8570e-07  2.3727e-02  5.3480e-01  0:01:20   18
   268  4.7681e-04  8.8721e-10  5.0485e-10  5.0629e-10  2.3130e-10  4.0724e-07  2.3728e-02  5.3480e-01  0:01:15   17
   269  4.6652e-04  8.6864e-10  4.9526e-10  4.9800e-10  2.2628e-10  4.0752e-07  2.3728e-02  5.3480e-01  0:01:11   16
   270  4.5684e-04  8.5089e-10  4.8637e-10  4.9014e-10  2.2135e-10  3.8707e-07  2.3728e-02  5.3480e-01  0:01:06   15
   271  4.4737e-04  8.3409e-10  4.7801e-10  4.8221e-10  2.1691e-10  3.7547e-07  2.3728e-02  5.3480e-01  0:01:02   14

  iter  continuity  x-velocity  y-velocity  z-velocity      energy         nut          cd          cl     time/iter
   272  4.3842e-04  8.1710e-10  4.7019e-10  4.7443e-10  2.1252e-10  3.7436e-07  2.3728e-02  5.3480e-01  0:00:58   13
   273  4.2976e-04  8.0062e-10  4.6266e-10  4.6745e-10  2.0819e-10  3.8338e-07  2.3728e-02  5.3480e-01  0:00:53   12
   274  4.2148e-04  7.8462e-10  4.5575e-10  4.6089e-10  2.0397e-10  3.8420e-07  2.3728e-02  5.3480e-01  0:00:49   11
   275  4.1355e-04  7.6892e-10  4.4936e-10  4.5450e-10  1.9993e-10  3.7822e-07  2.3728e-02  5.3480e-01  0:00:44   10
   276  4.0620e-04  7.5385e-10  4.4275e-10  4.4806e-10  1.9601e-10  3.8545e-07  2.3728e-02  5.3480e-01  0:00:40    9
   277  3.9900e-04  7.4030e-10  4.3606e-10  4.4151e-10  1.9253e-10  3.9172e-07  2.3728e-02  5.3480e-01  0:00:35    8
   278  3.9212e-04  7.2704e-10  4.2967e-10  4.3446e-10  1.8893e-10  3.9123e-07  2.3728e-02  5.3480e-01  0:00:31    7
   279  3.8538e-04  7.1406e-10  4.2354e-10  4.2745e-10  1.8549e-10  3.6966e-07  2.3728e-02  5.3480e-01  0:00:27    6
   280  3.7893e-04  7.0084e-10  4.1770e-10  4.2022e-10  1.8190e-10  3.6931e-07  2.3728e-02  5.3480e-01  0:00:22    5
   281  3.7273e-04  6.8801e-10  4.1202e-10  4.1290e-10  1.7871e-10  3.7092e-07  2.3728e-02  5.3480e-01  0:00:18    4
   282  3.6612e-04  6.7388e-10  4.0681e-10  4.0553e-10  1.7521e-10  3.8780e-07  2.3728e-02  5.3480e-01  0:00:13    3

  iter  continuity  x-velocity  y-velocity  z-velocity      energy         nut          cd          cl     time/iter
   283  3.5969e-04  6.6050e-10  4.0175e-10  3.9846e-10  1.7157e-10  3.8559e-07  2.3728e-02  5.3480e-01  0:00:09    2
   284  3.5345e-04  6.4744e-10  3.9658e-10  3.9172e-10  1.6796e-10  3.8283e-07  2.3728e-02  5.3480e-01  0:00:04    1
   285  3.4706e-04  6.3479e-10  3.9124e-10  3.8588e-10  1.6450e-10  3.8495e-07  2.3728e-02  5.3480e-01  0:00:00    0


> define/user-defined/execute-on-demand 
Execute on demand function name ["none"] "export_loads::libudf"
Writing forces to CFDexport.bdf...Done
 

> q/q 

> file/write-case-data "CRM9_0.0_1.cas"
Writing "CRM9_0.0_1.cas"...

 4686531 mixed cells, zone  2, binary.
 4686531 cell partition ids, zone  2, 20 partitions, binary.
10831129 mixed interior faces, zone  1, binary.
    9316 mixed symmetry faces, zone  5, binary.
     192 triangular pressure-far-field faces, zone  6, binary.
     174 triangular pressure-far-field faces, zone  7, binary.
     194 triangular pressure-far-field faces, zone  8, binary.
     194 triangular pressure-far-field faces, zone  9, binary.
     366 triangular pressure-far-field faces, zone 10, binary.
  154030 triangular wall faces, zone 11, binary.
 1851778 nodes, binary.
 1851778 node flags, binary.
Done.


Writing "CRM9_0.0_1.dat"...

Done.

 

> OK invalid command [OK]


> exit MSC Nastran V2018.2 (Intel Linux 3.10.0-1160.119.1.el7.x86_64) Wed Sep 18 11:29:45 2024
MSC Nastran beginning job pCRM9_101.

m1 =

    'AoA: 0.00 
     Iteration 2 
     Error: 1.000000 
     Tip displacement: 1349.29 [mm] 
     Total lift: 1141172 [N]'

/opt/ud/ansys-2019r1/v193/fluent/fluent19.3.0/bin/fluent -r19.3.0 3ddp -alnamd64 -t20 -mpi=ibmmpi -g -i fluent_script.in
/opt/ud/ansys-2019r1/v193/fluent/fluent19.3.0/cortex/lnamd64/cortex.19.3.0 -f fluent -g -i fluent_script.in (fluent "3ddp -pshmem  -host -alnamd64 -r19.3.0 -t20 -mpi=ibmmpi -path/opt/ud/ansys-2019r1/v193/fluent -ssh")
/opt/ud/ansys-2019r1/v193/fluent/fluent19.3.0/bin/fluent -r19.3.0 3ddp -pshmem -host -alnamd64 -t20 -mpi=ibmmpi -path/opt/ud/ansys-2019r1/v193/fluent -ssh -cx n12-34.hpc:44797:34418
Starting /opt/ud/ansys-2019r1/v193/fluent/fluent19.3.0/lnamd64/3ddp_host/fluent.19.3.0 host -cx n12-34.hpc:44797:34418 "(list (rpsetvar (QUOTE parallel/function) "fluent 3ddp -flux -node -alnamd64 -r19.3.0 -t20 -pshmem -mpi=ibmmpi -ssh") (rpsetvar (QUOTE parallel/rhost) "") (rpsetvar (QUOTE parallel/ruser) "") (rpsetvar (QUOTE parallel/nprocs_string) "20") (rpsetvar (QUOTE parallel/auto-spawn?) #t) (rpsetvar (QUOTE parallel/trace-level) 0) (rpsetvar (QUOTE parallel/remote-shell) 1) (rpsetvar (QUOTE parallel/path) "/opt/ud/ansys-2019r1/v193/fluent") (rpsetvar (QUOTE parallel/hostsfile) "") )"

              Welcome to ANSYS Fluent 2019 R1

              Copyright 1987-2018 ANSYS, Inc. All Rights Reserved.
              Unauthorized use, distribution or duplication is prohibited.
              This product is subject to U.S. laws governing export and re-export.
              For full Legal Notice, see documentation.

Build Time: Dec 04 2018 13:42:27 EST  Build Id: 10141  
 

     --------------------------------------------------------------
     This is an academic version of ANSYS FLUENT. Usage of this product
     license is limited to the terms and conditions specified in your ANSYS
     license form, additional terms section.
     --------------------------------------------------------------
Host spawning Node 0 on machine "n12-34" (unix).
/opt/ud/ansys-2019r1/v193/fluent/fluent19.3.0/bin/fluent -r19.3.0 3ddp -flux -node -alnamd64 -t20 -pshmem -mpi=ibmmpi -ssh -mport 192.168.1.34:192.168.1.34:39104:0
Starting /opt/ud/ansys-2019r1/v193/fluent/fluent19.3.0/multiport/mpi/lnamd64/ibmmpi/bin/mpirun -e MPI_IBV_NO_FORK_SAFE=1 -e MPI_USE_MALLOPT_MMAP_MAX=0 -np 20 /opt/ud/ansys-2019r1/v193/fluent/fluent19.3.0/lnamd64/3ddp_node/fluent_mpi.19.3.0 node -mpiw ibmmpi -pic shmem -mport 192.168.1.34:192.168.1.34:39104:0

-------------------------------------------------------------------------------
ID     Hostname  Core   O.S.      PID          Vendor                      
-------------------------------------------------------------------------------
n0-19  n12-34    20/40  Linux-64  21118-21137  Intel(R) Xeon(R) E5-2660 v3 
host   n12-34           Linux-64  20928        Intel(R) Xeon(R) E5-2660 v3 

MPI Option Selected: ibmmpi
Selected system interconnect: shared-memory
-------------------------------------------------------------------------------

Cleanup script file is /home/sharanp/FSI_Static_CRM_Test/Fluent/cleanup-fluent-n12-34-20928.sh

 +------------------------------------------------------------------+
 |                    ANSYS Product Improvement                     |
 |                                                                  |
 |   ANSYS Product Improvement Program helps improve ANSYS          |
 |   products. Participating in this program is like filling out a  |
 |   survey. Without interrupting your work, the software reports   |
 |   anonymous usage information such as errors, machine and        |
 |   solver statistics, features used, etc. to ANSYS. We never      |
 |   use the data to identify or contact you.                       |
 |   The data does NOT contain:                                     |
 |   - Any personally identifiable information including names,     |
 |     IP addresses, file names, part names, etc.                   |
 |   - Any information about your geometry or design specific       |
 |     inputs.                                                      |
 |   You can stop participation at any time. To change your         |
 |   selection go to Help >> ANSYS Product Improvement Program      |
 |   in the GUI.                                                    |
 |   For more information about the ANSYS Privacy Policy, please    |
 |   check: http://www.ansys.com/privacy                            |
 |                                                                  |
 +------------------------------------------------------------------+

Reading journal file fluent_script.in...

> file/read-case "CRM9_0.0_1.cas"
Multicore SMT processors detected. Processor affinity set!

Reading "CRM9_0.0_1.cas"...

Buffering for file scan...



 4686531 mixed cells, zone  2, binary.
 4686531 cell partition ids, zone  2, 20 partitions, binary.
10831129 mixed interior faces, zone  1, binary.
    9316 mixed symmetry faces, zone  5, binary.
     192 triangular pressure-far-field faces, zone  6, binary.
     174 triangular pressure-far-field faces, zone  7, binary.
     194 triangular pressure-far-field faces, zone  8, binary.
     194 triangular pressure-far-field faces, zone  9, binary.
     366 triangular pressure-far-field faces, zone 10, binary.
  154030 triangular wall faces, zone 11, binary.
 1851778 nodes, binary.
1851778 node flags, binary.

Checking the existence of compiled "libudf" UDF library for current platform.
If needed will attempt auto-compilation...





Copied /home/sharanp/FSI_Static_CRM_Test/Fluent/./disp_CRM9_f.c to libudf/src
Copied /home/sharanp/FSI_Static_CRM_Test/Fluent/./export_loads.c to libudf/src
udf_names.c and user.udf files are 3ddp_host upto date.
udf_names.c and user.udf files are 3ddp_node upto date.


Working...
for d in lnamd64/[23]*; do \
  ( \
    cd $d; \
	rm -rf *.{c,h,cpp,hpp}; \
    for f in ../../src/*.{c,h,cpp,hpp} ../../src/makefile ../../src/user.udf; do \
      if [ -f $f -a ! -f `basename $f` ]; then \
        echo "# linking to" $f "in" $d; \
        ln -s $f .; \
      fi; \
    done; \
    echo ""; \
    echo "# building library in" $d; \
    if [ "" = "1" ]; then \
	echo "# using gcc64"; \
	make ARCHC=gcc64 -k>makelog 2>&1; \
    else \
	if [ "" = "1" ]; then \
		echo "# using gcc"; \
		make ARCHC=gcc -k>makelog 2>&1; \
	else \
		make -k>makelog 2>&1; \
	fi; \
    fi;\
    cat makelog; \
  ) \
done
# linking to ../../src/disp_CRM9_f.c in lnamd64/3ddp_host
# linking to ../../src/export_loads.c in lnamd64/3ddp_host

# building library in lnamd64/3ddp_host
make[1]: Entering directory `/home/sharanp/FSI_Static_CRM_Test/Fluent/libudf/lnamd64/3ddp_host'
# Generating udf_names.c because of makefile disp_CRM9_f.c export_loads.c
make[2]: Entering directory `/home/sharanp/FSI_Static_CRM_Test/Fluent/libudf/lnamd64/3ddp_host'
make libudf.so "CFLAGS=-D_lnamd64 -D_GNU_SOURCE -fpic -shared -ansi -Wall -O -DPTR_RESTRICT=   " "LDFLAGS=-shared -lm"
make[3]: Entering directory `/home/sharanp/FSI_Static_CRM_Test/Fluent/libudf/lnamd64/3ddp_host'
# Linking libudf.so because of udf_names.c
cc -shared -lm udf_names.o disp_CRM9_f.o export_loads.o  -o libudf.so
make[3]: Leaving directory `/home/sharanp/FSI_Static_CRM_Test/Fluent/libudf/lnamd64/3ddp_host'
make[2]: Leaving directory `/home/sharanp/FSI_Static_CRM_Test/Fluent/libudf/lnamd64/3ddp_host'
make[1]: Leaving directory `/home/sharanp/FSI_Static_CRM_Test/Fluent/libudf/lnamd64/3ddp_host'
# linking to ../../src/disp_CRM9_f.c in lnamd64/3ddp_node
# linking to ../../src/export_loads.c in lnamd64/3ddp_node

# building library in lnamd64/3ddp_node
make[1]: Entering directory `/home/sharanp/FSI_Static_CRM_Test/Fluent/libudf/lnamd64/3ddp_node'
# Generating udf_names.c because of makefile disp_CRM9_f.c export_loads.c
make[2]: Entering directory `/home/sharanp/FSI_Static_CRM_Test/Fluent/libudf/lnamd64/3ddp_node'
make libudf.so "CFLAGS=-D_lnamd64 -D_GNU_SOURCE -fpic -shared -ansi -Wall -O -DPTR_RESTRICT=   " "LDFLAGS=-shared -lm"
make[3]: Entering directory `/home/sharanp/FSI_Static_CRM_Test/Fluent/libudf/lnamd64/3ddp_node'
# Linking libudf.so because of udf_names.c
cc -shared -lm udf_names.o disp_CRM9_f.o export_loads.o  -o libudf.so
make[3]: Leaving directory `/home/sharanp/FSI_Static_CRM_Test/Fluent/libudf/lnamd64/3ddp_node'
make[2]: Leaving directory `/home/sharanp/FSI_Static_CRM_Test/Fluent/libudf/lnamd64/3ddp_node'
make[1]: Leaving directory `/home/sharanp/FSI_Static_CRM_Test/Fluent/libudf/lnamd64/3ddp_node'

You can also see the 'log'-file in 
the working directory for this compilation history

Done.
Auto-compilation checking of "libudf"...Done

n12-34: Opening library "/home/sharanp/FSI_Static_CRM_Test/Fluent/libudf"...Done.

n12-34: Opening library "/home/sharanp/FSI_Static_CRM_Test/Fluent/libudf"...
	wall_motion
	export_loads
Done.

Building...
     mesh
	distributing mesh
		parts....................,
		faces....................,
		nodes....................,
		cells....................,
        bandwidth reduction using Reverse Cuthill-McKee: 235808/5005 = 47.1145
     materials,
     interface,
     domains,
	mixture
     zones,
	wing_t
	symmetry
	interior-sys_domain
	far_side
	inlet
	lower_side
	outlet
	upper_side
	sys_domain
     parallel,
     dynamic zones,
        wing_t
        symmetry
        interior-sys_domain
Done.
 

> file/read-data "CRM9_0.0_1.dat"
Reading "CRM9_0.0_1.dat"...



Parallel variables...
Done.
 

> define/dynamic-mesh/controls/smoothing-parameters/smoothing-method diffusion 

> define/dynamic-mesh/controls/smoothing-parameters/diffusion-coeff-function cell-volume

> define/dynamic-mesh/controls/smoothing-parameters/diffusion-coeff-parameter 1.5 

> solve/mesh-motion yes 
Updating mesh (steady, mesh iteration = 00001, pseudo time step 1.0000e+00)... 
Dynamic Mesh Statistics:
Minimum Volume    = 1.57443e-08
Maximum Volume    = 3.30228e+05
Maximum Cell Skew = 9.07595e-01 (cell zone 2)
Minimum Orthogonal Quality = 2.60919e-02 (cell zone 2)
Warning: minimum orthogonal quality less than 0.05.
Maximum Face Skew = 9.05008e-01 (face zone 1)

done.

> report/reference-values/compute/pressure-far-field (upper_side outlet lower_side inlet far_side)

zone id/name [upper_side] inlet 

> q/q/q 

> solve/set/p-v-coupling 24 

> solve/set/gradient-scheme  Options:
 Green-Gauss Cell-Based 
 Green-Gauss Node-Based 
 Least-Squares Cell-Based Default 
no yes 
 Least-Squares Cell-Based will be used

> solve/set/discretization-scheme pressure 12 

> solve/set/discretization-scheme density 1 

> solve/set/discretization-scheme mom 1 

> solve/set/discretization-scheme nut 1 

> solve/set/discretization-scheme temperature 1 

> solve/iterate/500 plot-residuals: no graphics functions available.

  iter  continuity  x-velocity  y-velocity  z-velocity      energy         nut          cl          cd     time/iter
   285  3.4706e-04  6.3479e-10  3.9124e-10  3.8588e-10  1.6450e-10  3.8495e-07  5.3480e-01  2.3728e-02  0:00:00  500
   286  2.0317e+00  9.1296e-08  1.4375e-07  3.4072e-08  3.4771e-07  3.3125e-05  4.7335e-01  1.3023e-02  1:16:05  499
   287  7.7693e-01  5.7189e-07  6.2472e-07  6.6152e-07  2.3169e-07  2.8540e-05  4.4704e-01  1.3777e-02  1:08:07  498
   288  7.2861e-01  5.0463e-07  6.4808e-07  6.7758e-07  1.9742e-07  2.5855e-05  4.3221e-01  1.4447e-02  1:01:45  497
   289  5.8147e-01  4.7963e-07  6.6849e-07  6.8577e-07  1.7909e-07  2.4035e-05  4.2126e-01  1.5075e-02  0:56:38  496
   290  4.8479e-01  4.6124e-07  6.6835e-07  6.8764e-07  1.6411e-07  2.2326e-05  4.1469e-01  1.5476e-02  0:52:38  495
   291  4.1870e-01  4.3530e-07  6.4091e-07  6.6531e-07  1.5036e-07  2.1046e-05  4.0977e-01  1.5826e-02  0:49:25  494
   292  3.7424e-01  4.0974e-07  6.0594e-07  6.3574e-07  1.3814e-07  1.9700e-05  4.0673e-01  1.6091e-02  0:46:50  493
   293  3.4061e-01  3.8198e-07  5.6424e-07  5.9749e-07  1.2710e-07  1.8588e-05  4.0444e-01  1.6309e-02  0:44:41  492
   294  3.1220e-01  3.5498e-07  5.2159e-07  5.5555e-07  1.1723e-07  1.7693e-05  4.0302e-01  1.6492e-02  0:42:56  491
   295  2.8772e-01  3.3133e-07  4.7845e-07  5.1294e-07  1.0844e-07  1.6735e-05  4.0185e-01  1.6638e-02  0:41:31  490

  iter  continuity  x-velocity  y-velocity  z-velocity      energy         nut          cl          cd     time/iter
   296  2.6596e-01  3.1038e-07  4.3723e-07  4.7162e-07  1.0060e-07  1.5813e-05  4.0114e-01  1.6766e-02  0:40:22  489
   297  2.4726e-01  2.9153e-07  3.9811e-07  4.3233e-07  9.3807e-08  1.4784e-05  4.0051e-01  1.6864e-02  0:39:27  488
   298  2.3028e-01  2.7412e-07  3.6243e-07  3.9626e-07  8.7638e-08  1.3945e-05  4.0015e-01  1.6952e-02  0:38:42  487
   299  2.1477e-01  2.5774e-07  3.3003e-07  3.6214e-07  8.1997e-08  1.3163e-05  3.9979e-01  1.7017e-02  0:38:06  486
   300  2.0048e-01  2.4162e-07  3.0045e-07  3.2987e-07  7.6610e-08  1.2461e-05  3.9960e-01  1.7079e-02  0:37:34  485
   301  1.8776e-01  2.2648e-07  2.7478e-07  3.0012e-07  7.1611e-08  1.1859e-05  3.9939e-01  1.7123e-02  0:37:09  484
   302  1.7627e-01  2.1281e-07  2.5229e-07  2.7349e-07  6.6982e-08  1.1273e-05  3.9926e-01  1.7167e-02  0:36:48  483
   303  1.6566e-01  1.9989e-07  2.3211e-07  2.4990e-07  6.2772e-08  1.0694e-05  3.9914e-01  1.7197e-02  0:36:29  482
   304  1.5573e-01  1.8803e-07  2.1344e-07  2.2861e-07  5.8933e-08  1.0110e-05  3.9907e-01  1.7227e-02  0:36:27  481
   305  1.4622e-01  1.7725e-07  1.9638e-07  2.0960e-07  5.5471e-08  9.5082e-06  3.9901e-01  1.7249e-02  0:36:11  480
   306  1.3733e-01  1.6668e-07  1.8084e-07  1.9292e-07  5.2115e-08  8.9092e-06  3.9897e-01  1.7269e-02  0:35:58  479

  iter  continuity  x-velocity  y-velocity  z-velocity      energy         nut          cl          cd     time/iter
   307  1.2912e-01  1.5708e-07  1.6676e-07  1.7758e-07  4.8973e-08  8.2570e-06  3.9895e-01  1.7281e-02  0:35:48  478
   308  1.2145e-01  1.4800e-07  1.5406e-07  1.6379e-07  4.6067e-08  7.6042e-06  3.9894e-01  1.7294e-02  0:35:38  477
   309  1.1429e-01  1.3973e-07  1.4284e-07  1.5131e-07  4.3407e-08  6.9972e-06  3.9894e-01  1.7301e-02  0:35:30  476
   310  1.0742e-01  1.3231e-07  1.3244e-07  1.3981e-07  4.0944e-08  6.3840e-06  3.9898e-01  1.7309e-02  0:35:22  475
   311  1.0097e-01  1.2580e-07  1.2275e-07  1.2918e-07  3.8675e-08  5.7917e-06  3.9902e-01  1.7314e-02  0:35:14  474
   312  9.4892e-02  1.1953e-07  1.1378e-07  1.1942e-07  3.6569e-08  5.2474e-06  3.9907e-01  1.7317e-02  0:35:07  473
   313  8.9134e-02  1.1358e-07  1.0555e-07  1.1038e-07  3.4639e-08  4.7464e-06  3.9912e-01  1.7320e-02  0:35:01  472
   314  8.3729e-02  1.0813e-07  9.8047e-08  1.0200e-07  3.2835e-08  4.2781e-06  3.9919e-01  1.7321e-02  0:34:55  471
   315  7.8649e-02  1.0317e-07  9.1113e-08  9.4438e-08  3.1178e-08  3.8799e-06  3.9926e-01  1.7321e-02  0:34:49  470
   316  7.3944e-02  9.8468e-08  8.4800e-08  8.7775e-08  2.9647e-08  3.4956e-06  3.9933e-01  1.7321e-02  0:34:44  469
   317  6.9640e-02  9.3743e-08  7.9106e-08  8.1621e-08  2.8227e-08  3.1751e-06  3.9942e-01  1.7320e-02  0:34:39  468

  iter  continuity  x-velocity  y-velocity  z-velocity      energy         nut          cl          cd     time/iter
   318  6.5599e-02  8.9121e-08  7.4031e-08  7.5952e-08  2.6831e-08  2.8775e-06  3.9950e-01  1.7318e-02  0:34:34  467
   319  6.1840e-02  8.4968e-08  6.9411e-08  7.0802e-08  2.5525e-08  2.6433e-06  3.9958e-01  1.7317e-02  0:34:29  466
   320  5.8260e-02  8.0916e-08  6.5137e-08  6.6170e-08  2.4282e-08  2.4090e-06  3.9966e-01  1.7314e-02  0:34:24  465
   321  5.4852e-02  7.7052e-08  6.1138e-08  6.1923e-08  2.3085e-08  2.2222e-06  3.9974e-01  1.7311e-02  0:34:19  464
   322  5.1733e-02  7.3421e-08  5.7505e-08  5.8029e-08  2.1969e-08  2.0418e-06  3.9982e-01  1.7309e-02  0:34:14  463
   323  4.8858e-02  7.0088e-08  5.4147e-08  5.4451e-08  2.0929e-08  1.9242e-06  3.9989e-01  1.7306e-02  0:34:10  462
[...]
  1248  1.0750e-04  1.8385e-10  1.3967e-10  1.2976e-10  5.1471e-11  2.9527e-07  3.6886e-01  1.6220e-02  0:15:45  213
  1249  1.0441e-04  1.8038e-10  1.3601e-10  1.2571e-10  5.0518e-11  2.9476e-07  3.6886e-01  1.6220e-02  0:15:40  212
  1250  1.0155e-04  1.7733e-10  1.3252e-10  1.2180e-10  4.9444e-11  2.8705e-07  3.6886e-01  1.6220e-02  0:15:36  211
! 1251 solution is converged
  1251  9.8798e-05  1.7313e-10  1.2923e-10  1.1875e-10  4.8271e-11  2.7703e-07  3.6886e-01  1.6220e-02  0:15:31  210


> define/user-defined/execute-on-demand 
Execute on demand function name ["none"] "export_loads::libudf"
Writing forces to CFDexport.bdf...Done
 

> q/q 

> file/write-case-data "CRM9_0.0_8.cas"
Writing "CRM9_0.0_8.cas"...

 4686531 mixed cells, zone  2, binary.
 4686531 cell partition ids, zone  2, 20 partitions, binary.
10831129 mixed interior faces, zone  1, binary.
    9316 mixed symmetry faces, zone  5, binary.
     192 triangular pressure-far-field faces, zone  6, binary.
     174 triangular pressure-far-field faces, zone  7, binary.
     194 triangular pressure-far-field faces, zone  8, binary.
     194 triangular pressure-far-field faces, zone  9, binary.
     366 triangular pressure-far-field faces, zone 10, binary.
  154030 triangular wall faces, zone 11, binary.
 1851778 nodes, binary.
 1851778 node flags, binary.
Done.


Writing "CRM9_0.0_8.dat"...

Done.

 

> OK invalid command [OK]


> exit MSC Nastran V2018.2 (Intel Linux 3.10.0-1160.119.1.el7.x86_64) Wed Sep 18 12:54:50 2024
MSC Nastran beginning job pCRM9_101.

m1 =

    'AoA: 0.00 
     Iteration 9 
     Error: 0.000698 
     Tip displacement: 1527.05 [mm] 
     Total lift: 783870 [N]'

/opt/ud/ansys-2019r1/v193/fluent/fluent19.3.0/bin/fluent -r19.3.0 3ddp -alnamd64 -t20 -mpi=ibmmpi -g -i fluent_script.in
/opt/ud/ansys-2019r1/v193/fluent/fluent19.3.0/cortex/lnamd64/cortex.19.3.0 -f fluent -g -i fluent_script.in (fluent "3ddp -pshmem  -host -alnamd64 -r19.3.0 -t20 -mpi=ibmmpi -path/opt/ud/ansys-2019r1/v193/fluent -ssh")
/opt/ud/ansys-2019r1/v193/fluent/fluent19.3.0/bin/fluent -r19.3.0 3ddp -pshmem -host -alnamd64 -t20 -mpi=ibmmpi -path/opt/ud/ansys-2019r1/v193/fluent -ssh -cx n12-34.hpc:32805:43194
Starting /opt/ud/ansys-2019r1/v193/fluent/fluent19.3.0/lnamd64/3ddp_host/fluent.19.3.0 host -cx n12-34.hpc:32805:43194 "(list (rpsetvar (QUOTE parallel/function) "fluent 3ddp -flux -node -alnamd64 -r19.3.0 -t20 -pshmem -mpi=ibmmpi -ssh") (rpsetvar (QUOTE parallel/rhost) "") (rpsetvar (QUOTE parallel/ruser) "") (rpsetvar (QUOTE parallel/nprocs_string) "20") (rpsetvar (QUOTE parallel/auto-spawn?) #t) (rpsetvar (QUOTE parallel/trace-level) 0) (rpsetvar (QUOTE parallel/remote-shell) 1) (rpsetvar (QUOTE parallel/path) "/opt/ud/ansys-2019r1/v193/fluent") (rpsetvar (QUOTE parallel/hostsfile) "") )"

              Welcome to ANSYS Fluent 2019 R1

              Copyright 1987-2018 ANSYS, Inc. All Rights Reserved.
              Unauthorized use, distribution or duplication is prohibited.
              This product is subject to U.S. laws governing export and re-export.
              For full Legal Notice, see documentation.

Build Time: Dec 04 2018 13:42:27 EST  Build Id: 10141  
 

     --------------------------------------------------------------
     This is an academic version of ANSYS FLUENT. Usage of this product
     license is limited to the terms and conditions specified in your ANSYS
     license form, additional terms section.
     --------------------------------------------------------------
Host spawning Node 0 on machine "n12-34" (unix).
/opt/ud/ansys-2019r1/v193/fluent/fluent19.3.0/bin/fluent -r19.3.0 3ddp -flux -node -alnamd64 -t20 -pshmem -mpi=ibmmpi -ssh -mport 192.168.1.34:192.168.1.34:35946:0
Starting /opt/ud/ansys-2019r1/v193/fluent/fluent19.3.0/multiport/mpi/lnamd64/ibmmpi/bin/mpirun -e MPI_IBV_NO_FORK_SAFE=1 -e MPI_USE_MALLOPT_MMAP_MAX=0 -np 20 /opt/ud/ansys-2019r1/v193/fluent/fluent19.3.0/lnamd64/3ddp_node/fluent_mpi.19.3.0 node -mpiw ibmmpi -pic shmem -mport 192.168.1.34:192.168.1.34:35946:0

-------------------------------------------------------------------------------
ID     Hostname  Core   O.S.      PID          Vendor                      
-------------------------------------------------------------------------------
n0-19  n12-34    20/40  Linux-64  33303-33322  Intel(R) Xeon(R) E5-2660 v3 
host   n12-34           Linux-64  33116        Intel(R) Xeon(R) E5-2660 v3 

MPI Option Selected: ibmmpi
Selected system interconnect: shared-memory
-------------------------------------------------------------------------------

Cleanup script file is /home/sharanp/FSI_Static_CRM_Test/Fluent/cleanup-fluent-n12-34-33116.sh

 +------------------------------------------------------------------+
 |                    ANSYS Product Improvement                     |
 |                                                                  |
 |   ANSYS Product Improvement Program helps improve ANSYS          |
 |   products. Participating in this program is like filling out a  |
 |   survey. Without interrupting your work, the software reports   |
 |   anonymous usage information such as errors, machine and        |
 |   solver statistics, features used, etc. to ANSYS. We never      |
 |   use the data to identify or contact you.                       |
 |   The data does NOT contain:                                     |
 |   - Any personally identifiable information including names,     |
 |     IP addresses, file names, part names, etc.                   |
 |   - Any information about your geometry or design specific       |
 |     inputs.                                                      |
 |   You can stop participation at any time. To change your         |
 |   selection go to Help >> ANSYS Product Improvement Program      |
 |   in the GUI.                                                    |
 |   For more information about the ANSYS Privacy Policy, please    |
 |   check: http://www.ansys.com/privacy                            |
 |                                                                  |
 +------------------------------------------------------------------+

Reading journal file fluent_script.in...

> file/read-case "CRM9_0.0_1.cas"WARNING: Rank:0 Machine n12-34 has 16 % of RAM filled with file buffer caches.
This can cause potential performance issues. Please use -cflush flag to flush the cache. 
(In case of any trouble with that, try the TUI/Scheme command '(flush-cache)'.)


Multicore SMT processors detected. Processor affinity set!

Reading "CRM9_0.0_1.cas"...

Buffering for file scan...



 4686531 mixed cells, zone  2, binary.
 4686531 cell partition ids, zone  2, 20 partitions, binary.
10831129 mixed interior faces, zone  1, binary.
    9316 mixed symmetry faces, zone  5, binary.
     192 triangular pressure-far-field faces, zone  6, binary.
     174 triangular pressure-far-field faces, zone  7, binary.
     194 triangular pressure-far-field faces, zone  8, binary.
     194 triangular pressure-far-field faces, zone  9, binary.
     366 triangular pressure-far-field faces, zone 10, binary.
  154030 triangular wall faces, zone 11, binary.
 1851778 nodes, binary.
1851778 node flags, binary.

Checking the existence of compiled "libudf" UDF library for current platform.
If needed will attempt auto-compilation...





Copied /home/sharanp/FSI_Static_CRM_Test/Fluent/./disp_CRM9_f.c to libudf/src
Copied /home/sharanp/FSI_Static_CRM_Test/Fluent/./export_loads.c to libudf/src
udf_names.c and user.udf files are 3ddp_host upto date.
udf_names.c and user.udf files are 3ddp_node upto date.


Working...
for d in lnamd64/[23]*; do \
  ( \
    cd $d; \
	rm -rf *.{c,h,cpp,hpp}; \
    for f in ../../src/*.{c,h,cpp,hpp} ../../src/makefile ../../src/user.udf; do \
      if [ -f $f -a ! -f `basename $f` ]; then \
        echo "# linking to" $f "in" $d; \
        ln -s $f .; \
      fi; \
    done; \
    echo ""; \
    echo "# building library in" $d; \
    if [ "" = "1" ]; then \
	echo "# using gcc64"; \
	make ARCHC=gcc64 -k>makelog 2>&1; \
    else \
	if [ "" = "1" ]; then \
		echo "# using gcc"; \
		make ARCHC=gcc -k>makelog 2>&1; \
	else \
		make -k>makelog 2>&1; \
	fi; \
    fi;\
    cat makelog; \
  ) \
done
# linking to ../../src/disp_CRM9_f.c in lnamd64/3ddp_host
# linking to ../../src/export_loads.c in lnamd64/3ddp_host

# building library in lnamd64/3ddp_host
make[1]: Entering directory `/home/sharanp/FSI_Static_CRM_Test/Fluent/libudf/lnamd64/3ddp_host'
# Generating udf_names.c because of makefile disp_CRM9_f.c export_loads.c
make[2]: Entering directory `/home/sharanp/FSI_Static_CRM_Test/Fluent/libudf/lnamd64/3ddp_host'
make libudf.so "CFLAGS=-D_lnamd64 -D_GNU_SOURCE -fpic -shared -ansi -Wall -O -DPTR_RESTRICT=   " "LDFLAGS=-shared -lm"
make[3]: Entering directory `/home/sharanp/FSI_Static_CRM_Test/Fluent/libudf/lnamd64/3ddp_host'
# Linking libudf.so because of udf_names.c
cc -shared -lm udf_names.o disp_CRM9_f.o export_loads.o  -o libudf.so
make[3]: Leaving directory `/home/sharanp/FSI_Static_CRM_Test/Fluent/libudf/lnamd64/3ddp_host'
make[2]: Leaving directory `/home/sharanp/FSI_Static_CRM_Test/Fluent/libudf/lnamd64/3ddp_host'
make[1]: Leaving directory `/home/sharanp/FSI_Static_CRM_Test/Fluent/libudf/lnamd64/3ddp_host'
# linking to ../../src/disp_CRM9_f.c in lnamd64/3ddp_node
# linking to ../../src/export_loads.c in lnamd64/3ddp_node

# building library in lnamd64/3ddp_node
make[1]: Entering directory `/home/sharanp/FSI_Static_CRM_Test/Fluent/libudf/lnamd64/3ddp_node'
# Generating udf_names.c because of makefile disp_CRM9_f.c export_loads.c
make[2]: Entering directory `/home/sharanp/FSI_Static_CRM_Test/Fluent/libudf/lnamd64/3ddp_node'
make libudf.so "CFLAGS=-D_lnamd64 -D_GNU_SOURCE -fpic -shared -ansi -Wall -O -DPTR_RESTRICT=   " "LDFLAGS=-shared -lm"
make[3]: Entering directory `/home/sharanp/FSI_Static_CRM_Test/Fluent/libudf/lnamd64/3ddp_node'
# Linking libudf.so because of udf_names.c
cc -shared -lm udf_names.o disp_CRM9_f.o export_loads.o  -o libudf.so
make[3]: Leaving directory `/home/sharanp/FSI_Static_CRM_Test/Fluent/libudf/lnamd64/3ddp_node'
make[2]: Leaving directory `/home/sharanp/FSI_Static_CRM_Test/Fluent/libudf/lnamd64/3ddp_node'
make[1]: Leaving directory `/home/sharanp/FSI_Static_CRM_Test/Fluent/libudf/lnamd64/3ddp_node'

You can also see the 'log'-file in 
the working directory for this compilation history

Done.
Auto-compilation checking of "libudf"...Done

n12-34: Opening library "/home/sharanp/FSI_Static_CRM_Test/Fluent/libudf"...Done.

n12-34: Opening library "/home/sharanp/FSI_Static_CRM_Test/Fluent/libudf"...
	wall_motion
	export_loads
Done.

Building...
     mesh
	distributing mesh
		parts....................,
		faces....................,
		nodes....................,
		cells....................,
        bandwidth reduction using Reverse Cuthill-McKee: 235808/5005 = 47.1145
     materials,
     interface,
     domains,
	mixture
     zones,
	wing_t
	symmetry
	interior-sys_domain
	far_side
	inlet
	lower_side
	outlet
	upper_side
	sys_domain
     parallel,
     dynamic zones,
        wing_t
        symmetry
        interior-sys_domain
Done.
 

> file/read-data "CRM9_0.0_8.dat"
Reading "CRM9_0.0_8.dat"...



Parallel variables...
Done.
 

> define/dynamic-mesh/controls/smoothing-parameters/smoothing-method diffusion 

> define/dynamic-mesh/controls/smoothing-parameters/diffusion-coeff-function cell-volume

> define/dynamic-mesh/controls/smoothing-parameters/diffusion-coeff-parameter 1.5 

> solve/mesh-motion yes 
Updating mesh (steady, mesh iteration = 00001, pseudo time step 1.0000e+00)... 
Dynamic Mesh Statistics:
Minimum Volume    = 1.57654e-08
Maximum Volume    = 3.30248e+05
Maximum Cell Skew = 9.10650e-01 (cell zone 2)
Minimum Orthogonal Quality = 2.58103e-02 (cell zone 2)
Warning: minimum orthogonal quality less than 0.05.
Maximum Face Skew = 9.05460e-01 (face zone 1)

done.

> report/reference-values/compute/pressure-far-field (upper_side outlet lower_side inlet far_side)

zone id/name [upper_side] inlet 

> q/q/q 

> solve/set/p-v-coupling 24 

> solve/set/gradient-scheme  Options:
 Green-Gauss Cell-Based 
 Green-Gauss Node-Based 
 Least-Squares Cell-Based Default 
no yes 
 Least-Squares Cell-Based will be used

> solve/set/discretization-scheme pressure 12 

> solve/set/discretization-scheme density 1 

> solve/set/discretization-scheme mom 1 

> solve/set/discretization-scheme nut 1 

> solve/set/discretization-scheme temperature 1 

> solve/iterate/250 plot-residuals: no graphics functions available.

  iter  continuity  x-velocity  y-velocity  z-velocity      energy         nut          cl          cd     time/iter
! 1251 solution is converged
  1251  9.8798e-05  1.7313e-10  1.2923e-10  1.1875e-10  4.8271e-11  2.7703e-07  3.6886e-01  1.6220e-02  0:00:00  250
  1252  1.9389e-03  2.6701e-10  6.4068e-10  1.6620e-10  2.8126e-10  3.0834e-07  3.6885e-01  1.6219e-02  0:28:19  249
  1253  8.7447e-04  7.4928e-10  9.1461e-10  5.4087e-10  2.8085e-10  3.0394e-07  3.6885e-01  1.6219e-02  0:26:10  248
  1254  7.4663e-04  7.8228e-10  9.2045e-10  5.5189e-10  2.7083e-10  3.1485e-07  3.6884e-01  1.6219e-02  0:24:25  247
  1255  6.1233e-04  8.5125e-10  9.2183e-10  5.5435e-10  2.5247e-10  3.0678e-07  3.6884e-01  1.6219e-02  0:23:01  246
  1256  5.2913e-04  8.5730e-10  8.4908e-10  5.4082e-10  2.4012e-10  3.0757e-07  3.6884e-01  1.6219e-02  0:21:53  245
  1257  4.7856e-04  8.1659e-10  7.7903e-10  5.2072e-10  2.2702e-10  3.0737e-07  3.6884e-01  1.6219e-02  0:20:58  244
  1258  4.5027e-04  7.5927e-10  7.0469e-10  5.0405e-10  2.1179e-10  3.0494e-07  3.6883e-01  1.6219e-02  0:20:13  243
  1259  4.2936e-04  7.0908e-10  6.4437e-10  4.9174e-10  1.9579e-10  2.8727e-07  3.6883e-01  1.6219e-02  0:19:37  242
  1260  4.1024e-04  6.7748e-10  5.9216e-10  4.8248e-10  1.8083e-10  2.8271e-07  3.6883e-01  1.6219e-02  0:19:07  241
  1261  3.9093e-04  6.4747e-10  5.4835e-10  4.7231e-10  1.6796e-10  2.8656e-07  3.6883e-01  1.6219e-02  0:18:42  240

  iter  continuity  x-velocity  y-velocity  z-velocity      energy         nut          cl          cd     time/iter
  1262  3.7237e-04  6.1605e-10  5.0984e-10  4.5868e-10  1.5647e-10  2.9998e-07  3.6883e-01  1.6219e-02  0:18:22  239
  1263  3.5556e-04  5.8333e-10  4.7576e-10  4.4097e-10  1.4708e-10  2.9656e-07  3.6883e-01  1.6219e-02  0:18:05  238
  1264  3.3986e-04  5.5179e-10  4.4499e-10  4.1857e-10  1.3886e-10  2.9567e-07  3.6883e-01  1.6219e-02  0:17:50  237
  1265  3.2459e-04  5.2216e-10  4.1633e-10  3.9401e-10  1.3190e-10  2.9390e-07  3.6883e-01  1.6219e-02  0:17:38  236
  1266  3.1056e-04  4.9408e-10  3.9038e-10  3.6930e-10  1.2609e-10  2.9978e-07  3.6883e-01  1.6219e-02  0:17:26  235
  1267  2.9700e-04  4.6757e-10  3.6730e-10  3.4587e-10  1.2086e-10  2.9619e-07  3.6883e-01  1.6219e-02  0:17:17  234
  1268  2.8424e-04  4.4365e-10  3.4710e-10  3.2437e-10  1.1611e-10  2.8320e-07  3.6883e-01  1.6219e-02  0:17:08  233
  1269  2.7211e-04  4.2179e-10  3.2966e-10  3.0564e-10  1.1177e-10  2.7803e-07  3.6883e-01  1.6219e-02  0:17:06  232
  1270  2.6048e-04  4.0229e-10  3.1410e-10  2.9020e-10  1.0796e-10  2.7655e-07  3.6883e-01  1.6219e-02  0:16:58  231
  1271  2.4935e-04  3.8482e-10  3.0038e-10  2.7779e-10  1.0474e-10  2.8891e-07  3.6883e-01  1.6219e-02  0:16:50  230
  1272  2.3937e-04  3.6874e-10  2.8788e-10  2.6723e-10  1.0162e-10  3.0136e-07  3.6883e-01  1.6219e-02  0:16:43  229

  iter  continuity  x-velocity  y-velocity  z-velocity      energy         nut          cl          cd     time/iter
  1273  2.2973e-04  3.5444e-10  2.7703e-10  2.5806e-10  9.8570e-11  2.9456e-07  3.6883e-01  1.6219e-02  0:16:37  228
  1274  2.2130e-04  3.4236e-10  2.6679e-10  2.4955e-10  9.5454e-11  2.9171e-07  3.6883e-01  1.6219e-02  0:16:31  227
  1275  2.1335e-04  3.3158e-10  2.5730e-10  2.4056e-10  9.2295e-11  2.8968e-07  3.6883e-01  1.6219e-02  0:16:26  226
  1276  2.0582e-04  3.2186e-10  2.4795e-10  2.3065e-10  8.9136e-11  2.9871e-07  3.6883e-01  1.6219e-02  0:16:21  225
  1277  1.9877e-04  3.1302e-10  2.3918e-10  2.2251e-10  8.6364e-11  2.9990e-07  3.6883e-01  1.6219e-02  0:16:16  224
  1278  1.9211e-04  3.0438e-10  2.3085e-10  2.1465e-10  8.3839e-11  2.9054e-07  3.6883e-01  1.6219e-02  0:16:15  223
  1279  1.8547e-04  2.9556e-10  2.2301e-10  2.0705e-10  8.0425e-11  2.7996e-07  3.6883e-01  1.6219e-02  0:16:13  222
  1280  1.7874e-04  2.8664e-10  2.1531e-10  1.9949e-10  7.7452e-11  2.7505e-07  3.6883e-01  1.6219e-02  0:16:11  221
  1281  1.7189e-04  2.7862e-10  2.0832e-10  1.9273e-10  7.4567e-11  2.8864e-07  3.6883e-01  1.6219e-02  0:16:08  220
  1282  1.6513e-04  2.7128e-10  2.0187e-10  1.8632e-10  7.2062e-11  2.9827e-07  3.6883e-01  1.6219e-02  0:16:05  219
  1283  1.5853e-04  2.6398e-10  1.9602e-10  1.8044e-10  7.0149e-11  2.9284e-07  3.6883e-01  1.6219e-02  0:16:02  218

  iter  continuity  x-velocity  y-velocity  z-velocity      energy         nut          cl          cd     time/iter
  1284  1.5222e-04  2.5704e-10  1.9076e-10  1.7482e-10  6.8319e-11  2.9281e-07  3.6883e-01  1.6219e-02  0:15:59  217
  1285  1.4612e-04  2.5045e-10  1.8585e-10  1.6964e-10  6.6423e-11  2.8953e-07  3.6883e-01  1.6219e-02  0:15:55  216
  1286  1.4040e-04  2.4326e-10  1.8095e-10  1.6478e-10  6.4513e-11  2.9868e-07  3.6883e-01  1.6219e-02  0:15:51  215
  1287  1.3537e-04  2.3682e-10  1.7632e-10  1.6022e-10  6.2679e-11  2.9939e-07  3.6883e-01  1.6219e-02  0:15:47  214
  1288  1.3065e-04  2.3071e-10  1.7181e-10  1.5557e-10  6.1170e-11  2.8916e-07  3.6883e-01  1.6219e-02  0:15:43  213
  1289  1.2653e-04  2.2446e-10  1.6724e-10  1.5100e-10  5.9770e-11  2.7833e-07  3.6883e-01  1.6219e-02  0:15:39  212
  1290  1.2267e-04  2.1845e-10  1.6250e-10  1.4658e-10  5.8284e-11  2.7896e-07  3.6883e-01  1.6219e-02  0:15:35  211
  1291  1.1909e-04  2.1281e-10  1.5769e-10  1.4216e-10  5.6657e-11  2.9115e-07  3.6883e-01  1.6219e-02  0:15:31  210
  1292  1.1566e-04  2.0772e-10  1.5277e-10  1.3769e-10  5.5010e-11  3.0365e-07  3.6883e-01  1.6219e-02  0:15:26  209
  1293  1.1238e-04  2.0257e-10  1.4805e-10  1.3365e-10  5.3361e-11  2.9570e-07  3.6883e-01  1.6219e-02  0:15:22  208
  1294  1.0908e-04  1.9781e-10  1.4352e-10  1.2974e-10  5.2058e-11  2.9959e-07  3.6883e-01  1.6219e-02  0:15:18  207

  iter  continuity  x-velocity  y-velocity  z-velocity      energy         nut          cl          cd     time/iter
  1295  1.0598e-04  1.9317e-10  1.3906e-10  1.2616e-10  5.0958e-11  2.9870e-07  3.6883e-01  1.6219e-02  0:15:13  206
  1296  1.0300e-04  1.8876e-10  1.3492e-10  1.2258e-10  4.9715e-11  2.9977e-07  3.6883e-01  1.6219e-02  0:15:09  205
  1297  1.0007e-04  1.8376e-10  1.3101e-10  1.1936e-10  4.8435e-11  2.8219e-07  3.6883e-01  1.6219e-02  0:15:04  204
! 1298 solution is converged
  1298  9.7473e-05  1.7946e-10  1.2751e-10  1.1620e-10  4.7369e-11  2.7785e-07  3.6883e-01  1.6219e-02  0:15:00  203


> define/user-defined/execute-on-demand 
Execute on demand function name ["none"] "export_loads::libudf"
Writing forces to CFDexport.bdf...Done
 

> q/q 

> file/write-case-data "CRM9_0.0_9.cas"
Writing "CRM9_0.0_9.cas"...

 4686531 mixed cells, zone  2, binary.
 4686531 cell partition ids, zone  2, 20 partitions, binary.
10831129 mixed interior faces, zone  1, binary.
    9316 mixed symmetry faces, zone  5, binary.
     192 triangular pressure-far-field faces, zone  6, binary.
     174 triangular pressure-far-field faces, zone  7, binary.
     194 triangular pressure-far-field faces, zone  8, binary.
     194 triangular pressure-far-field faces, zone  9, binary.
     366 triangular pressure-far-field faces, zone 10, binary.
  154030 triangular wall faces, zone 11, binary.
 1851778 nodes, binary.
 1851778 node flags, binary.
Done.


Writing "CRM9_0.0_9.dat"...

Done.

 

> OK invalid command [OK]


> exit 
m1 =

    'SOLUTION FOR AOA = 0.0deg IS CONVERGED'


m2 =

    '
     Iterations 9 
     Error: 0.000698 
     Tip displacement: 1527.05 [mm] 
     Total lift: 783870 [N]'

